@<TRIPOS>MOLECULE
1501913.cif
 54 57 0 0 0
SMALL
GASTEIGER

@<TRIPOS>ATOM
      1 N           4.6936    1.3364    4.5115 N.3     1  LIG1       -0.1602
      2 S           5.7132    0.8807    5.7044 S.O2    1  LIG1        0.0620
      3 O           2.9765    4.1830    4.8012 O.2     1  LIG1       -0.2495
      4 O           1.5341    3.8154    3.1187 O.3     1  LIG1       -0.4671
      5 O           4.1848    4.4308    1.5797 O.3     1  LIG1       -0.4671
      6 O           3.4398    2.5764    0.5612 O.2     1  LIG1       -0.2495
      7 O           5.0080   -0.1355    6.4306 O.2     1  LIG1       -0.1528
      8 O           6.1015    2.0895    6.3619 O.2     1  LIG1       -0.1528
      9 C          10.4789   -1.5841    2.9289 C.3     1  LIG1       -0.0397
     10 H          10.3218   -2.5433    2.8004 H       1  LIG1        0.0278
     11 H          11.3027   -1.4543    3.4430 H       1  LIG1        0.0278
     12 H          10.5667   -1.1475    2.0552 H       1  LIG1        0.0278
     13 C           9.3162   -0.9791    3.6793 C.ar    1  LIG1       -0.0503
     14 C           8.2466   -1.7753    4.0799 C.ar    1  LIG1       -0.0570
     15 H           8.2627   -2.7085    3.9041 H       1  LIG1        0.0621
     16 C           7.1578   -1.2181    4.7333 C.ar    1  LIG1       -0.0351
     17 H           6.4243   -1.7625    4.9965 H       1  LIG1        0.0637
     18 C           7.1521    0.1418    4.9977 C.ar    1  LIG1        0.1055
     19 C           8.2211    0.9546    4.6447 C.ar    1  LIG1       -0.0351
     20 H           8.2189    1.8818    4.8522 H       1  LIG1        0.0637
     21 C           9.2916    0.3771    3.9817 C.ar    1  LIG1       -0.0570
     22 H          10.0278    0.9212    3.7271 H       1  LIG1        0.0621
     23 C           6.9516    3.0016    2.1424 C.ar    1  LIG1       -0.0564
     24 H           6.9590    3.8846    2.4938 H       1  LIG1        0.0621
     25 C           7.8926    2.6208    1.1984 C.ar    1  LIG1       -0.0614
     26 H           8.5472    3.2425    0.9019 H       1  LIG1        0.0618
     27 C           7.8818    1.3369    0.6888 C.ar    1  LIG1       -0.0612
     28 H           8.5301    1.0815    0.0440 H       1  LIG1        0.0618
     29 C           6.9351    0.4203    1.1091 C.ar    1  LIG1       -0.0540
     30 H           6.9422   -0.4624    0.7565 H       1  LIG1        0.0624
     31 C           5.9678    0.7854    2.0516 C.ar    1  LIG1       -0.0161
     32 C           5.9996    2.0908    2.5702 C.ar    1  LIG1       -0.0196
     33 C           4.9727    2.4842    3.6226 C.3     1  LIG1        0.0841
     34 H           5.2576    3.2928    4.1375 H       1  LIG1        0.0546
     35 C           3.5588    2.6694    2.9844 C.3     1  LIG1        0.1864
     36 C           2.9172    1.2549    3.0552 C.3     1  LIG1       -0.0035
     37 H           2.1235    1.2582    3.6471 H       1  LIG1        0.0301
     38 H           2.6440    0.9473    2.1544 H       1  LIG1        0.0301
     39 C           4.0226    0.3537    3.6285 C.3     1  LIG1        0.0591
     40 H           3.6337   -0.4003    4.1578 H       1  LIG1        0.0530
     41 C           4.9413   -0.1643    2.5306 C.2     1  LIG1       -0.0282
     42 C           4.7352   -1.3866    2.0462 C.2     1  LIG1       -0.0934
     43 C           3.6971    3.1860    1.5523 C.2     1  LIG1        0.3260
     44 C           4.5713    4.9756    0.2886 C.3     1  LIG1        0.0817
     45 H           4.9194    5.8841    0.4081 H       1  LIG1        0.0661
     46 H           3.7907    5.0005   -0.3033 H       1  LIG1        0.0661
     47 H           5.2648    4.4102   -0.1105 H       1  LIG1        0.0661
     48 C           2.6901    3.6569    3.7644 C.2     1  LIG1        0.3260
     49 C           0.5464    4.6751    3.7474 C.3     1  LIG1        0.0817
     50 H          -0.2568    4.7130    3.1871 H       1  LIG1        0.0661
     51 H           0.9167    5.5764    3.8500 H       1  LIG1        0.0661
     52 H           0.3133    4.3154    4.6279 H       1  LIG1        0.0661
     53 H           5.1874   -1.7419    1.2965 H       1  LIG1        0.0538
     54 H           4.0189   -2.0184    2.3337 H       1  LIG1        0.0538
@<TRIPOS>BOND
     1    46    44    1
     2    47    44    1
     3    28    27    1
     4    44    45    1
     5    44     5    1
     6     6    43    2
     7    27    29   ar
     8    27    25   ar
     9    30    29    1
    10    26    25    1
    11    29    31   ar
    12    25    23   ar
    13    53    42    1
    14    43     5    1
    15    43    35    1
    16    42    54    1
    17    42    41    2
    18    31    41    1
    19    31    32   ar
    20    12     9    1
    21    23    24    1
    22    23    32   ar
    23    38    36    1
    24    41    39    1
    25    32    33    1
    26    10     9    1
    27     9    11    1
    28     9    13    1
    29    35    36    1
    30    35    33    1
    31    35    48    1
    32    36    39    1
    33    36    37    1
    34     4    49    1
    35     4    48    1
    36    50    49    1
    37    33    34    1
    38    33     1    1
    39    39    40    1
    40    39     1    1
    41    13    21   ar
    42    13    14   ar
    43    22    21    1
    44    49    51    1
    45    49    52    1
    46    48     3    2
    47    15    14    1
    48    21    19   ar
    49    14    16   ar
    50     1     2    1
    51    19    20    1
    52    19    18   ar
    53    16    17    1
    54    16    18   ar
    55    18     2    1
    56     2     8    2
    57     2     7    2
