@<TRIPOS>MOLECULE
?
 91 92 0 0 0
SMALL
GASTEIGER

@<TRIPOS>ATOM
      1 O          -2.1577   -0.4815    6.6251 O.2     1  LIG1       -0.1261
      2 O          -0.4467   -1.7242    6.6462 O.2     1  LIG1       -0.1261
      3 O          -5.7954   -6.5503    4.5188 O.2     1  LIG1       -0.1261
      4 O          -4.2713   -7.9648    4.7214 O.2     1  LIG1       -0.1261
      5 O           0.2505    0.2240   14.3468 O.2     1  LIG1       -0.1261
      6 O          -1.4489    1.4197   13.8837 O.2     1  LIG1       -0.1261
      7 N          -1.5429   -1.4334    7.0453 N.pl3   1  LIG1        0.0564
      8 N          -4.9998   -7.1514    5.1779 N.pl3   1  LIG1        0.0564
      9 N          -0.8991    0.3491   13.9479 N.pl3   1  LIG1        0.0564
     10 C          -3.9021   -4.7272   11.0938 C.2     1  LIG1       -0.0191
     11 C          -4.5502   -5.8880   10.7433 C.2     1  LIG1       -0.0052
     12 C          -3.7416   -4.3488   12.4347 C.3     1  LIG1        0.0513
     13 C          -2.1547   -2.2894    8.0762 C.ar    1  LIG1        0.1262
     14 C          -1.4201   -3.2971    8.6022 C.ar    1  LIG1       -0.0309
     15 H          -0.5286   -3.4559    8.3163 H       1  LIG1        0.0640
     16 C          -2.0201   -4.1000    9.5845 C.ar    1  LIG1       -0.0521
     17 H          -1.5352   -4.8305    9.9511 H       1  LIG1        0.0624
     18 C          -3.2861   -3.8472   10.0200 C.ar    1  LIG1       -0.0202
     19 C          -3.9796   -2.7992    9.4879 C.ar    1  LIG1       -0.0521
     20 H          -4.8551   -2.6053    9.8011 H       1  LIG1        0.0624
     21 C          -3.4107   -2.0042    8.4808 C.ar    1  LIG1       -0.0309
     22 H          -3.8974   -1.2849    8.0951 H       1  LIG1        0.0640
     23 C          -4.7138   -6.2889    9.3021 C.ar    1  LIG1       -0.0169
     24 C          -5.6950   -5.7106    8.5414 C.ar    1  LIG1       -0.0518
     25 H          -6.3091   -5.1082    8.9439 H       1  LIG1        0.0624
     26 C          -5.8018   -5.9983    7.1800 C.ar    1  LIG1       -0.0309
     27 H          -6.4766   -5.5944    6.6477 H       1  LIG1        0.0640
     28 C          -4.9185   -6.8694    6.6382 C.ar    1  LIG1        0.1262
     29 C          -3.9290   -7.4682    7.3642 C.ar    1  LIG1       -0.0309
     30 H          -3.3244   -8.0777    6.9585 H       1  LIG1        0.0640
     31 C          -3.8341   -7.1552    8.7238 C.ar    1  LIG1       -0.0518
     32 H          -3.1489   -7.5501    9.2498 H       1  LIG1        0.0624
     33 C          -3.0074   -3.1148   12.8001 C.ar    1  LIG1       -0.0343
     34 C          -1.6838   -3.1863   13.1066 C.ar    1  LIG1       -0.0555
     35 H          -1.2312   -4.0223   13.0646 H       1  LIG1        0.0621
     36 C          -0.9825   -2.0283   13.4857 C.ar    1  LIG1       -0.0312
     37 H          -0.0655   -2.0816   13.7247 H       1  LIG1        0.0640
     38 C          -1.6228   -0.8402   13.5087 C.ar    1  LIG1        0.1262
     39 C          -2.9278   -0.7304   13.1730 C.ar    1  LIG1       -0.0312
     40 H          -3.3646    0.1137   13.1758 H       1  LIG1        0.0640
     41 C          -3.6082   -1.8794   12.8264 C.ar    1  LIG1       -0.0555
     42 H          -4.5279   -1.8140   12.5966 H       1  LIG1        0.0621
     43 O          -0.4183   11.4335    0.8368 O.3     2  LIG2       -0.3752
     44 O          -0.0678    8.6491    0.6920 O.3     2  LIG2       -0.3752
     45 C           0.8834   10.7774    0.8718 C.3     2  LIG2        0.0711
     46 H           1.2399   10.7199   -0.0508 H       2  LIG2        0.0583
     47 H           1.5084   11.3315    1.4038 H       2  LIG2        0.0583
     48 C           0.8267    9.4737    1.4292 C.3     2  LIG2        0.0711
     49 H           0.5253    9.5302    2.3699 H       2  LIG2        0.0583
     50 H           1.7318    9.0701    1.4195 H       2  LIG2        0.0583
     51 C          -1.3517    9.2845    0.6928 C.3     2  LIG2        0.0711
     52 H          -1.9960    8.7210    0.1947 H       2  LIG2        0.0583
     53 H          -1.6750    9.3657    1.6251 H       2  LIG2        0.0583
     54 C          -1.3059   10.5828    0.0991 C.3     2  LIG2        0.0711
     55 H          -2.2137   10.9782    0.0895 H       2  LIG2        0.0583
     56 H          -0.9941   10.5088   -0.8379 H       2  LIG2        0.0583
     57 O           5.7269    2.2692    5.6258 O.3     3  LIG3       -0.3752
     58 C           4.7578    1.4739    4.8897 C.3     3  LIG3        0.0711
     59 H           3.9189    1.9864    4.7712 H       3  LIG3        0.0583
     60 H           4.5494    0.6446    5.3878 H       3  LIG3        0.0583
     61 C           5.3357    1.1448    3.5814 C.3     3  LIG3        0.0711
     62 H           4.6747    0.6365    3.0482 H       3  LIG3        0.0583
     63 H           5.5433    1.9808    3.0954 H       3  LIG3        0.0583
     64 O           6.5315    0.3679    3.7170 O.3     3  LIG3       -0.3752
     65 C           7.4879    1.1369    4.4520 C.3     3  LIG3        0.0711
     66 H           7.7128    1.9581    3.9502 H       3  LIG3        0.0583
     67 H           8.3184    0.6098    4.5705 H       3  LIG3        0.0583
     68 C           6.9323    1.4979    5.7760 C.3     3  LIG3        0.0711
     69 H           6.7359    0.6741    6.2886 H       3  LIG3        0.0583
     70 H           7.6004    2.0240    6.2838 H       3  LIG3        0.0583
     71 O          -2.9040    6.9520    2.6105 O.3     4  LIG4       -0.3752
     72 O          -2.5287    4.1779    2.4642 O.3     4  LIG4       -0.3752
     73 C          -3.7219    6.1523    1.8040 C.3     4  LIG4        0.0711
     74 H          -3.3392    6.1020    0.8923 H       4  LIG4        0.0583
     75 H          -4.6217    6.5597    1.7387 H       4  LIG4        0.0583
     76 C          -3.8401    4.7541    2.3783 C.3     4  LIG4        0.0711
     77 H          -4.2512    4.7928    3.2779 H       4  LIG4        0.0583
     78 H          -4.4167    4.1971    1.7968 H       4  LIG4        0.0583
     79 C          -1.6834    4.9738    3.2695 C.3     4  LIG4        0.0711
     80 H          -0.7825    4.5658    3.3094 H       4  LIG4        0.0583
     81 H          -2.0442    5.0135    4.1908 H       4  LIG4        0.0583
     82 C          -1.5797    6.3600    2.7133 C.3     4  LIG4        0.0711
     83 H          -1.0109    6.9150    3.3045 H       4  LIG4        0.0583
     84 H          -1.1578    6.3289    1.8185 H       4  LIG4        0.0583
     85 O           3.7084   -3.4481    7.2805 O.3     1  LIG1       -0.3752
     86 C           4.7594   -2.6092    6.7723 C.3     1  LIG1        0.0711
     87 H           5.6397   -2.9657    7.0516 H       1  LIG1        0.0583
     88 H           4.6643   -1.6928    7.1374 H       1  LIG1        0.0583
     89 C           2.4402   -2.9693    6.8436 C.3     1  LIG1        0.0711
     90 H           2.2912   -2.0593    7.2039 H       1  LIG1        0.0583
     91 H           1.7270   -3.5582    7.1955 H       1  LIG1        0.0583
@<TRIPOS>BOND
     1    56    54    1
     2    46    45    1
     3    55    54    1
     4    54    51    1
     5    54    43    1
     6    52    51    1
     7    44    51    1
     8    44    48    1
     9    51    53    1
    10    43    45    1
    11    45    47    1
    12    45    48    1
    13    74    73    1
    14    50    48    1
    15    48    49    1
    16    75    73    1
    17    78    76    1
    18    73    76    1
    19    73    71    1
    20    84    82    1
    21    76    72    1
    22    76    77    1
    23    72    79    1
    24    71    82    1
    25    82    79    1
    26    82    83    1
    27    62    61    1
    28    63    61    1
    29    79    80    1
    30    79    81    1
    31    61    64    1
    32    61    58    1
    33    64    65    1
    34    66    65    1
    35    65    67    1
    36    65    68    1
    37     3     8    2
    38     4     8    2
    39    59    58    1
    40    58    60    1
    41    58    57    1
    42     8    28    1
    43    57    68    1
    44    68    70    1
    45    68    69    1
    46     1     7    2
    47    28    26   ar
    48    28    29   ar
    49     2     7    2
    50    27    26    1
    51    86    87    1
    52    86    88    1
    53    86    85    1
    54    89    91    1
    55    89    90    1
    56    89    85    1
    57    30    29    1
    58     7    13    1
    59    26    24   ar
    60    29    31   ar
    61    13    21   ar
    62    13    14   ar
    63    22    21    1
    64    15    14    1
    65    21    19   ar
    66    24    25    1
    67    24    23   ar
    68    14    16   ar
    69    31    32    1
    70    31    23   ar
    71    23    11    1
    72    19    20    1
    73    19    18   ar
    74    16    17    1
    75    16    18   ar
    76    18    10    1
    77    11    10    2
    78    10    12    1
    79    12    33    1
    80    42    41    1
    81    33    41   ar
    82    33    34   ar
    83    41    39   ar
    84    35    34    1
    85    34    36   ar
    86    39    40    1
    87    39    38   ar
    88    36    38   ar
    89    36    37    1
    90    38     9    1
    91     6     9    2
    92     9     5    2
