@<TRIPOS>MOLECULE
?
 37 36 0 0 0
SMALL
GASTEIGER

@<TRIPOS>ATOM
      1 C          -0.0326    6.5355    2.3541 C.2     1  LIG1       -0.0071
      2 H           0.8024    6.7652    1.9619 H       1  LIG1        0.0780
      3 C          -0.7117    5.4115    1.9292 C.2     1  LIG1       -0.0623
      4 H          -0.3503    4.8678    1.2389 H       1  LIG1        0.0591
      5 C          -1.9175    5.0798    2.5111 C.3     1  LIG1        0.0078
      6 H          -2.3941    4.3105    2.2229 H       1  LIG1        0.0395
      7 C          -2.4244    5.8764    3.5150 C.2     1  LIG1       -0.0623
      8 H          -3.2484    5.6554    3.9336 H       1  LIG1        0.0591
      9 C          -1.7268    6.9930    3.9034 C.2     1  LIG1       -0.0071
     10 H          -2.0750    7.5516    4.5888 H       1  LIG1        0.0780
     11 C           0.1464    8.5294    3.7719 C.3     1  LIG1        0.0171
     12 H          -0.5053    9.2689    3.8609 H       1  LIG1        0.0468
     13 H           0.8185    8.7924    3.0949 H       1  LIG1        0.0468
     14 C           0.8331    8.2958    5.1028 C.3     1  LIG1       -0.0241
     15 H           1.5270    7.5969    5.0038 H       1  LIG1        0.0290
     16 H           0.1726    7.9840    5.7710 H       1  LIG1        0.0290
     17 C           1.4764    9.6019    5.5804 C.3     1  LIG1        0.0362
     18 H           2.1400    9.9083    4.9127 H       1  LIG1        0.0418
     19 H           0.7815   10.3015    5.6664 H       1  LIG1        0.0418
     20 C           2.1358    9.4052    6.8709 C.1     1  LIG1        0.0626
     21 C           3.2667    4.6946    5.8760 C.3     2  LIG2        0.5387
     22 C          -0.1353    1.3234    4.1144 C.3     2  LIG2        0.5387
     23 N          -0.5551    7.3039    3.3232 N.pl3   1  LIG1       -0.3131
     24 N           2.6239    9.2016    7.8856 N.1     1  LIG1       -0.1966
     25 N           2.0453    2.7721    4.5268 N.3     2  LIG2        0.0775
     26 O           2.3979    4.9328    3.4547 O.2     2  LIG2       -0.1468
     27 O           0.7455    4.8516    5.2718 O.2     2  LIG2       -0.1468
     28 O           1.9363    0.5224    5.4661 O.2     2  LIG2       -0.1468
     29 O           0.4789    2.2311    6.4733 O.2     2  LIG2       -0.1468
     30 F           3.3468    6.0028    6.0885 F       2  LIG2       -0.1492
     31 F           4.4374    4.2618    5.4411 F       2  LIG2       -0.1492
     32 F           3.0069    4.1054    7.0452 F       2  LIG2       -0.1492
     33 F           0.3724    0.9293    2.9622 F       2  LIG2       -0.1492
     34 F          -0.9082    0.3591    4.5970 F       2  LIG2       -0.1492
     35 F          -0.8933    2.3876    3.8905 F       2  LIG2       -0.1492
     36 S           1.9347    4.3381    4.6658 S.O2    2  LIG2        0.1638
     37 S           1.1783    1.7255    5.3319 S.O2    2  LIG2        0.1638
@<TRIPOS>BOND
     1     4     3    1
     2     3     1    2
     3     3     5    1
     4     2     1    1
     5     6     5    1
     6     1    23    1
     7     5     7    1
     8    33    22    1
     9    13    11    1
    10    23    11    1
    11    23     9    1
    12    26    36    2
    13     7     9    2
    14     7     8    1
    15    11    12    1
    16    11    14    1
    17    35    22    1
    18     9    10    1
    19    22    34    1
    20    22    37    1
    21    25    36    1
    22    25    37    1
    23    36    27    2
    24    36    21    1
    25    18    17    1
    26    15    14    1
    27    14    17    1
    28    14    16    1
    29    37    28    2
    30    37    29    2
    31    31    21    1
    32    17    19    1
    33    17    20    1
    34    21    30    1
    35    21    32    1
    36    20    24    3
