@<TRIPOS>MOLECULE
?
 36 38 0 0 0
SMALL
GASTEIGER

@<TRIPOS>ATOM
      1 C           0.9264    2.7522    1.4173 C.ar    1  LIG1       -0.0561
      2 C           0.7144    1.9078    0.3358 C.ar    1  LIG1       -0.0614
      3 C          -0.3699    2.0743   -0.4802 C.ar    1  LIG1       -0.0617
      4 C          -1.2564    3.0792   -0.2310 C.ar    1  LIG1       -0.0614
      5 C          -1.0741    3.9443    0.8394 C.ar    1  LIG1       -0.0561
      6 C           0.0284    3.7881    1.6880 C.ar    1  LIG1       -0.0113
      7 C           0.2294    4.7118    2.8047 C.3     1  LIG1        0.2095
      8 C          -0.5484    5.9141    3.1198 C.2     1  LIG1        0.3391
      9 C           1.1031    5.7547    4.6841 C.3     1  LIG1        0.1859
     10 C           0.8464    5.2886    6.1027 C.3     1  LIG1        0.0123
     11 C          -0.5478    4.6854    6.2808 C.3     1  LIG1       -0.0455
     12 C          -0.7834    4.2217    7.7091 C.3     1  LIG1       -0.0526
     13 C          -0.5428    5.3501    8.7013 C.3     1  LIG1       -0.0530
     14 C           0.8407    5.9524    8.5337 C.3     1  LIG1       -0.0526
     15 C           1.0724    6.4182    7.1024 C.3     1  LIG1       -0.0455
     16 H           1.6858    2.6022    1.9354 H       1  LIG1        0.0621
     17 H           1.3339    1.2352    0.2032 H       1  LIG1        0.0618
     18 H          -0.5335    1.4637   -1.2313 H       1  LIG1        0.0618
     19 H          -2.0451    3.2211   -0.8009 H       1  LIG1        0.0618
     20 H          -1.6757    4.6175    1.0639 H       1  LIG1        0.0621
     21 H           1.9057    6.2583    4.6119 H       1  LIG1        0.0936
     22 H           1.4855    4.6196    6.2640 H       1  LIG1        0.0351
     23 H          -1.2376    5.3721    6.0153 H       1  LIG1        0.0270
     24 H          -0.6607    3.9186    5.6340 H       1  LIG1        0.0270
     25 H          -1.7032    3.8674    7.8347 H       1  LIG1        0.0265
     26 H          -0.1145    3.5226    7.9077 H       1  LIG1        0.0265
     27 H          -1.2740    6.0825    8.5269 H       1  LIG1        0.0265
     28 H          -0.6878    4.9951    9.6051 H       1  LIG1        0.0265
     29 H           0.9709    6.7055    9.1712 H       1  LIG1        0.0265
     30 H           1.5639    5.2740    8.7935 H       1  LIG1        0.0265
     31 H           0.4778    7.1706    6.8772 H       1  LIG1        0.0270
     32 H           1.9863    6.7727    7.0075 H       1  LIG1        0.0270
     33 N           1.1726    4.6244    3.7182 N.4     1  LIG1       -0.0906
     34 O          -1.5392    6.3589    2.6142 O.2     1  LIG1       -0.2481
     35 O           0.0446    6.5550    4.1749 O.3     1  LIG1       -0.4414
     36 O           2.0646    3.7528    3.8997 O.3     1  LIG1       -0.1144
@<TRIPOS>BOND
     1    18     3    1
     2    19     4    1
     3     3     4   ar
     4     3     2   ar
     5     4     5   ar
     6    17     2    1
     7     2     1   ar
     8     5    20    1
     9     5     6   ar
    10     1     6   ar
    11     1    16    1
    12     6     7    1
    13    34     8    2
    14     7     8    1
    15     7    33    1
    16     8    35    1
    17    33    36    1
    18    33     9    1
    19    35     9    1
    20    21     9    1
    21     9    10    1
    22    24    11    1
    23    23    11    1
    24    10    22    1
    25    10    11    1
    26    10    15    1
    27    11    12    1
    28    31    15    1
    29    32    15    1
    30    15    14    1
    31    12    25    1
    32    12    26    1
    33    12    13    1
    34    27    13    1
    35    14    13    1
    36    14    30    1
    37    14    29    1
    38    13    28    1
