@<TRIPOS>MOLECULE
?
 75 77 0 0 0
SMALL
GASTEIGER

@<TRIPOS>ATOM
      1 BR          5.5687    8.6281    4.4910 Br      1  LIG1       -0.0503
      2 BR         -7.7581   10.5367    1.7614 Br      1  LIG1       -0.0503
      3 O          -0.0572   12.3916    9.5620 O.2     1  LIG1       -0.2496
      4 O          -1.0260   10.7158   10.6878 O.3     1  LIG1       -0.4671
      5 O          -4.3130   10.7031    9.2615 O.2     1  LIG1       -0.2496
      6 O          -3.3820   12.4835   10.2373 O.3     1  LIG1       -0.4671
      7 N          -1.3905   10.5213    3.9930 N.3     1  LIG1       -0.2940
      8 C          -1.5589   11.8297    4.6084 C.3     1  LIG1        0.0246
      9 H          -1.4775   12.5314    3.9135 H       1  LIG1        0.0476
     10 H          -0.8416   11.9734    5.2728 H       1  LIG1        0.0476
     11 C          -2.9019   11.9499    5.2857 C.2     1  LIG1       -0.0301
     12 C          -3.0716   12.2792    6.5679 C.2     1  LIG1       -0.0775
     13 H          -3.9699   12.3975    6.8515 H       1  LIG1        0.0576
     14 C          -2.0218   12.4854    7.6150 C.3     1  LIG1       -0.0077
     15 H          -2.1690   13.3561    8.0620 H       1  LIG1        0.0324
     16 H          -1.1294   12.5069    7.1884 H       1  LIG1        0.0324
     17 C          -2.0586   11.3529    8.6700 C.3     1  LIG1        0.1705
     18 C          -1.9221    9.9565    8.0197 C.3     1  LIG1       -0.0077
     19 H          -2.0499    9.2646    8.7162 H       1  LIG1        0.0324
     20 H          -2.6394    9.8441    7.3451 H       1  LIG1        0.0324
     21 C          -0.5953    9.7405    7.3569 C.2     1  LIG1       -0.0775
     22 H           0.1624    9.7835    7.9288 H       1  LIG1        0.0576
     23 C          -0.3342    9.4972    6.0688 C.2     1  LIG1       -0.0301
     24 C          -1.3768    9.4239    4.9712 C.3     1  LIG1        0.0246
     25 H          -1.2454    8.5748    4.4776 H       1  LIG1        0.0476
     26 H          -2.2696    9.3809    5.3982 H       1  LIG1        0.0476
     27 C          -4.0816   11.6363    4.4361 C.ar    1  LIG1       -0.0209
     28 C          -4.1726   12.0819    3.1198 C.ar    1  LIG1       -0.0533
     29 H          -3.4733   12.6125    2.7578 H       1  LIG1        0.0624
     30 C          -5.2648   11.7643    2.3340 C.ar    1  LIG1       -0.0472
     31 H          -5.3174   12.0760    1.4377 H       1  LIG1        0.0629
     32 C          -6.2735   10.9933    2.8601 C.ar    1  LIG1        0.0179
     33 C          -6.2240   10.5399    4.1595 C.ar    1  LIG1       -0.0472
     34 H          -6.9326   10.0190    4.5168 H       1  LIG1        0.0629
     35 C          -5.1248   10.8545    4.9320 C.ar    1  LIG1       -0.0533
     36 H          -5.0776   10.5320    5.8252 H       1  LIG1        0.0624
     37 C           1.0853    9.2686    5.6638 C.ar    1  LIG1       -0.0209
     38 C           2.0871   10.1177    6.1241 C.ar    1  LIG1       -0.0533
     39 H           1.8503   10.8506    6.6792 H       1  LIG1        0.0624
     40 C           3.4160    9.9272    5.7962 C.ar    1  LIG1       -0.0472
     41 H           4.0859   10.5135    6.1268 H       1  LIG1        0.0629
     42 C           3.7471    8.8757    4.9818 C.ar    1  LIG1        0.0179
     43 C           2.7972    8.0031    4.5058 C.ar    1  LIG1       -0.0472
     44 H           3.0463    7.2712    3.9527 H       1  LIG1        0.0629
     45 C           1.4688    8.2132    4.8486 C.ar    1  LIG1       -0.0533
     46 H           0.8060    7.6191    4.5168 H       1  LIG1        0.0624
     47 C          -0.9249   11.5786    9.6740 C.2     1  LIG1        0.3246
     48 C           0.0077   10.8115   11.6895 C.3     1  LIG1        0.0817
     49 H          -0.1501   10.1392   12.3868 H       1  LIG1        0.0661
     50 H          -0.0062   11.7056   12.0891 H       1  LIG1        0.0661
     51 H           0.8803   10.6522   11.2743 H       1  LIG1        0.0661
     52 C          -3.3893   11.4379    9.4194 C.2     1  LIG1        0.3246
     53 C          -4.5624   12.7375   11.0224 C.3     1  LIG1        0.0817
     54 H          -4.7945   13.6883   10.9648 H       1  LIG1        0.0661
     55 H          -4.3907   12.5001   11.9559 H       1  LIG1        0.0661
     56 H          -5.3050   12.1991   10.6788 H       1  LIG1        0.0661
     57 C          -0.3142   10.5066    2.9980 C.3     1  LIG1       -0.0005
     58 H          -0.0217    9.5725    2.8479 H       1  LIG1        0.0427
     59 H           0.4595   11.0148    3.3494 H       1  LIG1        0.0427
     60 C          -0.7519   11.1115    1.6708 C.3     1  LIG1       -0.0402
     61 H          -1.0984   12.0252    1.8294 H       1  LIG1        0.0278
     62 H           0.0356   11.1868    1.0734 H       1  LIG1        0.0278
     63 C          -1.8225   10.2868    0.9766 C.3     1  LIG1       -0.0519
     64 H          -2.5326   10.0728    1.6336 H       1  LIG1        0.0266
     65 H          -1.4218    9.4327    0.6777 H       1  LIG1        0.0266
     66 C          -2.4630   10.9767   -0.2307 C.3     1  LIG1       -0.0533
     67 H          -1.7838   11.0529   -0.9480 H       1  LIG1        0.0265
     68 H          -2.7260   11.8942    0.0313 H       1  LIG1        0.0265
     69 C          -3.7208   10.2418   -0.8089 C.3     1  LIG1       -0.0559
     70 H          -4.3195    9.9760   -0.0666 H       1  LIG1        0.0263
     71 H          -4.2190   10.8545   -1.4063 H       1  LIG1        0.0263
     72 C          -3.3139    9.0633   -1.5529 C.3     1  LIG1       -0.0653
     73 H          -4.1076    8.5972   -1.8882 H       1  LIG1        0.0230
     74 H          -2.8065    8.4653   -0.9637 H       1  LIG1        0.0230
     75 H          -2.7508    9.3321   -2.3073 H       1  LIG1        0.0230
@<TRIPOS>BOND
     1    75    72    1
     2    73    72    1
     3    72    74    1
     4    72    69    1
     5    71    69    1
     6    67    66    1
     7    69    66    1
     8    69    70    1
     9    66    68    1
    10    66    63    1
    11    65    63    1
    12    63    64    1
    13    63    60    1
    14    62    60    1
    15    31    30    1
    16    60    61    1
    17    60    57    1
    18     2    32    1
    19    30    32   ar
    20    30    28   ar
    21    29    28    1
    22    58    57    1
    23    32    33   ar
    24    57    59    1
    25    57     7    1
    26    28    27   ar
    27     9     8    1
    28    44    43    1
    29     7     8    1
    30     7    24    1
    31    33    34    1
    32    33    35   ar
    33    27    35   ar
    34    27    11    1
    35    25    24    1
    36     1    42    1
    37    43    45   ar
    38    43    42   ar
    39    46    45    1
    40     8    10    1
    41     8    11    1
    42    45    37   ar
    43    35    36    1
    44    24    26    1
    45    24    23    1
    46    42    40   ar
    47    11    12    2
    48    37    23    1
    49    37    38   ar
    50    40    38   ar
    51    40    41    1
    52    23    21    2
    53    38    39    1
    54    12    13    1
    55    12    14    1
    56    16    14    1
    57    20    18    1
    58    21    22    1
    59    21    18    1
    60    14    15    1
    61    14    17    1
    62    18    17    1
    63    18    19    1
    64    17    52    1
    65    17    47    1
    66     5    52    2
    67    52     6    1
    68     3    47    2
    69    47     4    1
    70     6    53    1
    71    56    53    1
    72     4    48    1
    73    54    53    1
    74    53    55    1
    75    51    48    1
    76    48    50    1
    77    48    49    1
