@<TRIPOS>MOLECULE
?
 112 116 0 0 0
SMALL
GASTEIGER

@<TRIPOS>ATOM
      1 O          -1.0995    0.7101   30.8718 O.3     1  LIG1       -0.4445
      2 O          -3.1711    1.1160   29.9820 O.2     1  LIG1       -0.2262
      3 O          -2.4013    2.3722   34.2377 O.3     1  LIG1       -0.3564
      4 O           4.3191    2.7828   39.3338 O.3     1  LIG1       -0.4951
      5 O           3.4857    3.4227   26.0294 O.3     2  LIG2       -0.4445
      6 O           1.4891    3.8464   27.0524 O.2     2  LIG2       -0.2262
      7 O           2.4841    6.2394   23.4897 O.3     2  LIG2       -0.3564
      8 O          10.4988    4.3995   19.8073 O.3     2  LIG2       -0.4951
      9 N          -2.5384    1.9485   32.0080 N.am    1  LIG1       -0.2359
     10 N           1.9382    4.5737   24.9355 N.am    2  LIG2       -0.2359
     11 C          -0.5343    0.0673   29.6644 C.3     1  LIG1        0.1068
     12 C          -0.4437    1.0809   28.5433 C.3     1  LIG1       -0.0253
     13 H          -1.3447    1.3805   28.2999 H       1  LIG1        0.0268
     14 H          -0.0158    0.6687   27.7625 H       1  LIG1        0.0268
     15 H           0.0876    1.8490   28.8412 H       1  LIG1        0.0268
     16 C          -1.3467   -1.1551   29.2783 C.3     1  LIG1       -0.0253
     17 H          -1.4386   -1.7450   30.0561 H       1  LIG1        0.0268
     18 H          -0.8910   -1.6346   28.5535 H       1  LIG1        0.0268
     19 H          -2.2351   -0.8739   28.9737 H       1  LIG1        0.0268
     20 C           0.8548   -0.3335   30.1356 C.3     1  LIG1       -0.0253
     21 H           1.3512    0.4663   30.4081 H       1  LIG1        0.0268
     22 H           1.3311   -0.7808   29.4051 H       1  LIG1        0.0268
     23 H           0.7772   -0.9446   30.8964 H       1  LIG1        0.0268
     24 C          -2.3442    1.2361   30.8616 C.2     1  LIG1        0.4056
     25 C          -3.8813    2.3326   32.4554 C.3     1  LIG1        0.0547
     26 H          -4.5733    1.7536   32.0243 H       1  LIG1        0.0525
     27 C          -3.7482    1.9910   33.9368 C.3     1  LIG1        0.0687
     28 H          -4.3952    2.5056   34.4807 H       1  LIG1        0.0579
     29 H          -3.8890    1.0240   34.0947 H       1  LIG1        0.0579
     30 C          -1.6082    1.9186   33.1530 C.3     1  LIG1        0.1343
     31 H          -1.2943    0.9843   33.3188 H       1  LIG1        0.0814
     32 C          -4.1775    3.8073   32.1920 C.3     1  LIG1       -0.0348
     33 H          -3.9834    4.0120   31.2446 H       1  LIG1        0.0281
     34 H          -3.5780    4.3627   32.7510 H       1  LIG1        0.0281
     35 C          -5.6262    4.1770   32.4952 C.3     1  LIG1       -0.0635
     36 H          -6.2244    3.6389   31.9373 H       1  LIG1        0.0230
     37 H          -5.7680    5.1274   32.3044 H       1  LIG1        0.0230
     38 H          -5.8169    4.0016   33.4399 H       1  LIG1        0.0230
     39 C          -0.4200    2.8512   32.9849 C.3     1  LIG1        0.0158
     40 H           0.0140    2.6735   32.1114 H       1  LIG1        0.0355
     41 H          -0.7382    3.7889   32.9819 H       1  LIG1        0.0355
     42 C           0.5930    2.6724   34.0924 C.ar    1  LIG1       -0.0427
     43 C           0.7384    3.5929   35.1068 C.ar    1  LIG1       -0.0507
     44 H           0.2068    4.3800   35.1015 H       1  LIG1        0.0626
     45 C           1.6705    3.3853   36.1612 C.ar    1  LIG1       -0.0174
     46 C           1.8034    4.3052   37.2415 C.ar    1  LIG1       -0.0506
     47 H           1.2837    5.1004   37.2475 H       1  LIG1        0.0625
     48 C           2.6715    4.0574   38.2732 C.ar    1  LIG1       -0.0194
     49 H           2.7380    4.6715   38.9962 H       1  LIG1        0.0654
     50 C           3.4665    2.8914   38.2649 C.ar    1  LIG1        0.1207
     51 C           3.3795    1.9818   37.2354 C.ar    1  LIG1       -0.0122
     52 H           3.9258    1.2045   37.2362 H       1  LIG1        0.0660
     53 C           2.4643    2.2130   36.1688 C.ar    1  LIG1       -0.0144
     54 C           2.3106    1.2793   35.1090 C.ar    1  LIG1       -0.0537
     55 H           2.8392    0.4904   35.0939 H       1  LIG1        0.0624
     56 C           1.3988    1.5115   34.1022 C.ar    1  LIG1       -0.0578
     57 H           1.3096    0.8779   33.4020 H       1  LIG1        0.0620
     58 C           5.2285    1.6892   39.3058 C.3     1  LIG1        0.0788
     59 H           4.7282    0.8475   39.3330 H       1  LIG1        0.0660
     60 H           5.8252    1.7404   40.0824 H       1  LIG1        0.0660
     61 H           5.7588    1.7266   38.4814 H       1  LIG1        0.0660
     62 C           4.0733    2.6534   27.1489 C.3     2  LIG2        0.1068
     63 C           4.2069    3.5198   28.3703 C.3     2  LIG2       -0.0253
     64 H           4.6951    4.3380   28.1372 H       2  LIG2        0.0268
     65 H           4.6976    3.0323   29.0645 H       2  LIG2        0.0268
     66 H           3.3158    3.7544   28.7049 H       2  LIG2        0.0268
     67 C           3.2536    1.4195   27.4078 C.3     2  LIG2       -0.0253
     68 H           2.3640    1.6794   27.7284 H       2  LIG2        0.0268
     69 H           3.6974    0.8705   28.0880 H       2  LIG2        0.0268
     70 H           3.1663    0.9055   26.5778 H       2  LIG2        0.0268
     71 C           5.4271    2.2751   26.6013 C.3     2  LIG2       -0.0253
     72 H           5.3141    1.8013   25.7489 H       2  LIG2        0.0268
     73 H           5.8862    1.6921   27.2402 H       2  LIG2        0.0268
     74 H           5.9585    3.0852   26.4567 H       2  LIG2        0.0268
     75 C           2.2471    3.9390   26.1058 C.2     2  LIG2        0.4056
     76 C           0.7492    5.4287   24.8564 C.3     2  LIG2        0.0547
     77 H           0.7204    6.0467   25.6429 H       2  LIG2        0.0525
     78 C           1.0826    6.2118   23.5900 C.3     2  LIG2        0.0687
     79 H           0.6887    5.7685   22.7966 H       2  LIG2        0.0579
     80 H           0.7228    7.1317   23.6483 H       2  LIG2        0.0579
     81 C           2.9700    5.0061   23.9794 C.3     2  LIG2        0.1343
     82 H           3.8271    5.1630   24.4696 H       2  LIG2        0.0814
     83 C          -0.5392    4.6364   24.7735 C.3     2  LIG2       -0.0348
     84 H          -0.6157    4.0528   25.5710 H       2  LIG2        0.0281
     85 H          -0.5150    4.0568   23.9700 H       2  LIG2        0.0281
     86 C          -1.7633    5.5483   24.6989 C.3     2  LIG2       -0.0635
     87 H          -1.7618    6.1600   25.4650 H       2  LIG2        0.0230
     88 H          -2.5775    5.0038   24.7156 H       2  LIG2        0.0230
     89 H          -1.7348    6.0663   23.8678 H       2  LIG2        0.0230
     90 C           3.2059    3.9729   22.8773 C.3     2  LIG2        0.0158
     91 H           3.2397    3.0691   23.2811 H       2  LIG2        0.0355
     92 H           2.4461    3.9953   22.2440 H       2  LIG2        0.0355
     93 C           4.4916    4.2299   22.1233 C.ar    2  LIG2       -0.0427
     94 C           5.5514    3.3531   22.2100 C.ar    2  LIG2       -0.0507
     95 H           5.4528    2.5580   22.7209 H       2  LIG2        0.0626
     96 C           6.7869    3.6049   21.5571 C.ar    2  LIG2       -0.0174
     97 C           7.8910    2.7172   21.6407 C.ar    2  LIG2       -0.0506
     98 H           7.7981    1.9014   22.1191 H       2  LIG2        0.0625
     99 C           9.0837    3.0139   21.0488 C.ar    2  LIG2       -0.0194
    100 H           9.8107    2.4067   21.1199 H       2  LIG2        0.0654
    101 C           9.2445    4.2247   20.3251 C.ar    2  LIG2        0.1207
    102 C           8.1952    5.0981   20.1873 C.ar    2  LIG2       -0.0122
    103 H           8.3004    5.8950   19.6816 H       2  LIG2        0.0660
    104 C           6.9456    4.8037   20.8084 C.ar    2  LIG2       -0.0144
    105 C           5.8380    5.6874   20.7149 C.ar    2  LIG2       -0.0537
    106 H           5.9175    6.4849   20.2040 H       2  LIG2        0.0624
    107 C           4.6541    5.4045   21.3508 C.ar    2  LIG2       -0.0578
    108 H           3.9279    6.0111   21.2713 H       2  LIG2        0.0620
    109 C          10.7459    5.6150   19.0931 C.3     2  LIG2        0.0788
    110 H          10.1558    5.6604   18.3115 H       2  LIG2        0.0660
    111 H          11.6807    5.6362   18.7998 H       2  LIG2        0.0660
    112 H          10.5704    6.3802   19.6779 H       2  LIG2        0.0660
@<TRIPOS>BOND
     1   110   109    1
     2   111   109    1
     3   109   112    1
     4   109     8    1
     5   103   102    1
     6     8   101    1
     7   102   101   ar
     8   102   104   ar
     9   106   105    1
    10   101    99   ar
    11   105   104   ar
    12   105   107   ar
    13   104    96   ar
    14    99   100    1
    15    99    97   ar
    16   108   107    1
    17   107    93   ar
    18    96    97   ar
    19    96    94   ar
    20    97    98    1
    21    93    94   ar
    22    93    90    1
    23    94    95    1
    24    92    90    1
    25    79    78    1
    26    90    91    1
    27    90    81    1
    28     7    78    1
    29     7    81    1
    30    78    80    1
    31    78    76    1
    32    89    86    1
    33    85    83    1
    34    81    82    1
    35    81    10    1
    36    86    88    1
    37    86    83    1
    38    86    87    1
    39    83    76    1
    40    83    84    1
    41    76    10    1
    42    76    77    1
    43    10    75   am
    44    72    71    1
    45     5    75    1
    46     5    62    1
    47    75     6    2
    48    74    71    1
    49    70    67    1
    50    71    62    1
    51    71    73    1
    52    62    67    1
    53    62    63    1
    54    67    68    1
    55    67    69    1
    56    14    12    1
    57    64    63    1
    58    13    12    1
    59    63    66    1
    60    63    65    1
    61    12    15    1
    62    12    11    1
    63    18    16    1
    64    19    16    1
    65    16    11    1
    66    16    17    1
    67    22    20    1
    68    11    20    1
    69    11     1    1
    70     2    24    2
    71    20    21    1
    72    20    23    1
    73    24     1    1
    74    24     9   am
    75    33    32    1
    76    36    35    1
    77     9    25    1
    78     9    30    1
    79    26    25    1
    80    40    39    1
    81    32    25    1
    82    32    35    1
    83    32    34    1
    84    37    35    1
    85    25    27    1
    86    35    38    1
    87    41    39    1
    88    39    30    1
    89    39    42    1
    90    30    31    1
    91    30     3    1
    92    57    56    1
    93    27    29    1
    94    27     3    1
    95    27    28    1
    96    42    56   ar
    97    42    43   ar
    98    56    54   ar
    99    55    54    1
   100    44    43    1
   101    43    45   ar
   102    54    53   ar
   103    45    53   ar
   104    45    46   ar
   105    53    51   ar
   106    51    52    1
   107    51    50   ar
   108    46    47    1
   109    46    48   ar
   110    50    48   ar
   111    50     4    1
   112    48    49    1
   113    61    58    1
   114    58    59    1
   115    58     4    1
   116    58    60    1
