@<TRIPOS>MOLECULE
?
 50 52 0 0 0
SMALL
GASTEIGER

@<TRIPOS>ATOM
      1 S           2.0455    5.3671    6.4751 S.O2    1  LIG1        0.1342
      2 O           3.3606    5.6878    5.9927 O.2     1  LIG1       -0.1302
      3 O           1.0032    6.3503    6.4426 O.2     1  LIG1       -0.1302
      4 N           1.5183    4.1092    5.5763 N.pl3   1  LIG1       -0.0731
      5 N          -0.4073    3.7032    4.2018 N.2     1  LIG1       -0.0797
      6 C           2.8044    3.7426   12.2696 C.3     1  LIG1       -0.0397
      7 H           2.2293    4.2923   12.8413 H       1  LIG1        0.0278
      8 H           3.7410    3.8834   12.5186 H       1  LIG1        0.0278
      9 H           2.5734    2.7974   12.3869 H       1  LIG1        0.0278
     10 C           2.6016    4.1349   10.8269 C.ar    1  LIG1       -0.0503
     11 C           3.4809    3.6806    9.8412 C.ar    1  LIG1       -0.0569
     12 H           4.2045    3.1160   10.0858 H       1  LIG1        0.0621
     13 C           3.3153    4.0397    8.5126 C.ar    1  LIG1       -0.0329
     14 H           3.9274    3.7340    7.8527 H       1  LIG1        0.0638
     15 C           2.2412    4.8549    8.1539 C.ar    1  LIG1        0.1290
     16 C           1.3543    5.3175    9.1171 C.ar    1  LIG1       -0.0329
     17 H           0.6266    5.8752    8.8701 H       1  LIG1        0.0638
     18 C           1.5435    4.9550   10.4483 C.ar    1  LIG1       -0.0569
     19 H           0.9403    5.2729   11.1090 H       1  LIG1        0.0621
     20 C           0.1009    3.8949    5.3396 C.2     1  LIG1        0.3044
     21 C           0.3091    3.8409    2.9084 C.3     1  LIG1        0.1498
     22 C           1.5336    2.9037    2.7390 C.3     1  LIG1        0.0135
     23 H           1.8113    2.9733    1.7815 H       1  LIG1        0.0350
     24 C           2.7596    3.2884    3.5722 C.3     1  LIG1       -0.0005
     25 H           3.5307    2.7286    3.3026 H       1  LIG1        0.0313
     26 H           2.9921    4.2351    3.3981 H       1  LIG1        0.0313
     27 C           2.4915    3.0977    5.0603 C.3     1  LIG1        0.1382
     28 H           3.3557    3.2247    5.5472 H       1  LIG1        0.0833
     29 C           1.9792    1.7117    5.3742 C.2     1  LIG1       -0.0324
     30 C           1.4250    0.9750    4.4161 C.2     1  LIG1       -0.0808
     31 H           1.1337    0.1020    4.6500 H       1  LIG1        0.0573
     32 C           1.2236    1.4139    2.9940 C.3     1  LIG1       -0.0272
     33 H           0.2843    1.2369    2.7382 H       1  LIG1        0.0312
     34 H           1.8016    0.8644    2.4082 H       1  LIG1        0.0312
     35 C           0.6860    5.3181    2.7121 C.3     1  LIG1       -0.0172
     36 H          -0.1189    5.8727    2.7787 H       1  LIG1        0.0274
     37 H           1.0916    5.4372    1.8279 H       1  LIG1        0.0274
     38 H           1.3256    5.5865    3.4039 H       1  LIG1        0.0274
     39 C          -0.7347    3.4793    1.8383 C.3     1  LIG1       -0.0172
     40 H          -1.1274    2.6058    2.0464 H       1  LIG1        0.0274
     41 H          -0.3028    3.4428    0.9595 H       1  LIG1        0.0274
     42 H          -1.4406    4.1596    1.8279 H       1  LIG1        0.0274
     43 C           2.1172    1.2510    6.7987 C.3     1  LIG1       -0.0399
     44 H           1.7232    0.3584    6.8932 H       1  LIG1        0.0276
     45 H           1.6513    1.8774    7.3910 H       1  LIG1        0.0276
     46 H           3.0661    1.2170    7.0408 H       1  LIG1        0.0276
     47 C          -0.7705    3.7975    6.5625 C.3     1  LIG1        0.0408
     48 H          -1.6927    3.6079    6.2926 H       1  LIG1        0.0351
     49 H          -0.7415    4.6458    7.0524 H       1  LIG1        0.0351
     50 H          -0.4434    3.0753    7.1392 H       1  LIG1        0.0351
@<TRIPOS>BOND
     1    41    39    1
     2    23    22    1
     3    42    39    1
     4    37    35    1
     5    39    40    1
     6    39    21    1
     7    34    32    1
     8    35    36    1
     9    35    21    1
    10    35    38    1
    11    33    32    1
    12    22    21    1
    13    22    32    1
    14    22    24    1
    15    21     5    1
    16    32    30    1
    17    25    24    1
    18    26    24    1
    19    24    27    1
    20     5    20    2
    21    30    31    1
    22    30    29    2
    23    27    29    1
    24    27    28    1
    25    27     4    1
    26    20     4    1
    27    20    47    1
    28    29    43    1
    29     4     1    1
    30     2     1    2
    31    48    47    1
    32     3     1    2
    33     1    15    1
    34    47    49    1
    35    47    50    1
    36    43    44    1
    37    43    46    1
    38    43    45    1
    39    14    13    1
    40    15    13   ar
    41    15    16   ar
    42    13    11   ar
    43    17    16    1
    44    16    18   ar
    45    11    12    1
    46    11    10   ar
    47    18    10   ar
    48    18    19    1
    49    10     6    1
    50     6     9    1
    51     6     8    1
    52     6     7    1
