@<TRIPOS>MOLECULE
2-[(4-Chlorophenyl)sulfanyl]ethyl Phenyl Sulfone
 32 33 0 0 0
SMALL
GASTEIGER

@<TRIPOS>ATOM
      1 S           5.5538    1.7794    0.1941 S.3     1  LIG1       -0.1236
      2 S           7.3167   -1.2555    2.8392 S.O2    1  LIG1       -0.0023
      3 CL          1.1628   -1.8099   -2.5007 Cl      1  LIG1       -0.0835
      4 O           6.5953   -2.2149    3.6377 O.2     1  LIG1       -0.1693
      5 O           8.2630   -1.7464    1.8631 O.2     1  LIG1       -0.1693
      6 C           6.1167   -0.2484    1.9924 C.3     1  LIG1        0.0801
      7 C           4.3511    0.7040   -0.5356 C.ar    1  LIG1        0.0080
      8 C           6.7475    0.6315    0.9308 C.3     1  LIG1        0.0181
      9 C           8.1488   -0.1226    3.9077 C.ar    1  LIG1        0.0882
     10 C           3.0044    1.0238   -0.3706 C.ar    1  LIG1       -0.0469
     11 C           9.3193    1.7721    5.5262 C.ar    1  LIG1       -0.0616
     12 C           7.5920    0.1434    5.1524 C.ar    1  LIG1       -0.0369
     13 C           9.2899    0.5345    3.4635 C.ar    1  LIG1       -0.0369
     14 C           4.7011   -0.3960   -1.3138 C.ar    1  LIG1       -0.0469
     15 C           2.3887   -0.8303   -1.7468 C.ar    1  LIG1        0.0410
     16 C           9.8743    1.4885    4.2903 C.ar    1  LIG1       -0.0600
     17 C           8.1903    1.0984    5.9631 C.ar    1  LIG1       -0.0600
     18 C           2.0208    0.2606   -0.9860 C.ar    1  LIG1       -0.0423
     19 C           3.7182   -1.1736   -1.9117 C.ar    1  LIG1       -0.0423
     20 H          10.6327    1.9826    3.9933 H       1  LIG1        0.0618
     21 H           1.0976    0.5010   -0.8808 H       1  LIG1        0.0632
     22 H           2.7444    1.7214    0.1567 H       1  LIG1        0.0629
     23 H           9.7026    2.4303    6.0816 H       1  LIG1        0.0618
     24 H           3.9395   -1.9239   -2.4758 H       1  LIG1        0.0632
     25 H           7.8100    1.2844    6.8090 H       1  LIG1        0.0618
     26 H           5.6361   -0.6289   -1.4400 H       1  LIG1        0.0629
     27 H           5.6554    0.2558    2.6490 H       1  LIG1        0.0512
     28 H           9.6452    0.3571    2.6259 H       1  LIG1        0.0636
     29 H           7.1570    0.1332    0.2656 H       1  LIG1        0.0396
     30 H           6.8116   -0.3038    5.4630 H       1  LIG1        0.0636
     31 H           5.4937   -0.8634    1.6000 H       1  LIG1        0.0512
     32 H           7.3997    1.2151    1.3344 H       1  LIG1        0.0396
@<TRIPOS>BOND
     1     3    15    1
     2    24    19    1
     3    19    15   ar
     4    19    14   ar
     5    15    18   ar
     6    26    14    1
     7    14     7   ar
     8    18    21    1
     9    18    10   ar
    10     7    10   ar
    11     7     1    1
    12    10    22    1
    13     1     8    1
    14    29     8    1
    15     8    32    1
    16     8     6    1
    17    31     6    1
    18     5     2    2
    19     6    27    1
    20     6     2    1
    21    28    13    1
    22     2     4    2
    23     2     9    1
    24    13     9   ar
    25    13    16   ar
    26     9    12   ar
    27    20    16    1
    28    16    11   ar
    29    12    30    1
    30    12    17   ar
    31    11    17   ar
    32    11    23    1
    33    17    25    1
