@<TRIPOS>MOLECULE
?
 52 53 0 0 0
SMALL
GASTEIGER

@<TRIPOS>ATOM
      1 S           1.9143    7.9310   17.0752 S.O2    1  LIG1        0.0382
      2 O           2.0360    5.5610   14.3737 O.2     1  LIG1       -0.2486
      3 O           3.0303    7.3173   13.3467 O.3     1  LIG1       -0.4576
      4 O           1.1421    7.4372   18.1810 O.2     1  LIG1       -0.1575
      5 O           1.2565    8.2091   15.8279 O.2     1  LIG1       -0.1575
      6 N           3.1171    6.8599   16.8195 N.3     1  LIG1       -0.1560
      7 C           3.2638    5.6022   17.5993 C.3     1  LIG1        0.0538
      8 H           2.4364    5.0980   17.5796 H       1  LIG1        0.0526
      9 C           3.6777    5.7864   19.0560 C.3     1  LIG1       -0.0319
     10 H           4.4611    6.3988   19.0512 H       1  LIG1        0.0284
     11 H           3.0286    6.2529   19.5815 H       1  LIG1        0.0284
     12 C           4.1024    4.4431   19.6407 C.3     1  LIG1       -0.0510
     13 H           3.3331    3.8490   19.5711 H       1  LIG1        0.0266
     14 H           4.2806    4.5284   20.5857 H       1  LIG1        0.0266
     15 C           5.2884    3.8584   18.8927 C.3     1  LIG1       -0.0493
     16 H           5.6172    3.0221   19.3237 H       1  LIG1        0.0268
     17 H           6.0402    4.4625   18.9526 H       1  LIG1        0.0268
     18 C           4.9591    3.6698   17.4112 C.3     1  LIG1       -0.0302
     19 H           4.3483    2.9248   17.3196 H       1  LIG1        0.0310
     20 H           5.7244    3.4379   16.9633 H       1  LIG1        0.0310
     21 C           4.3534    4.9147   16.8324 C.2     1  LIG1       -0.0528
     22 C           4.6776    5.5667   15.7294 C.2     1  LIG1       -0.0540
     23 H           5.3916    5.3349   15.1101 H       1  LIG1        0.0594
     24 C           3.7956    6.7623   15.5095 C.3     1  LIG1        0.1472
     25 H           4.2693    7.5238   15.3198 H       1  LIG1        0.0640
     26 C           2.8233    6.4694   14.3590 C.2     1  LIG1        0.3306
     27 C           2.2215    7.2210   12.1086 C.3     1  LIG1        0.1053
     28 C           2.5091    5.9050   11.4181 C.3     1  LIG1       -0.0254
     29 H           3.4781    5.7853   11.3347 H       1  LIG1        0.0268
     30 H           2.1031    5.9077   10.5255 H       1  LIG1        0.0268
     31 H           2.1324    5.1702   11.9468 H       1  LIG1        0.0268
     32 C           0.7523    7.4077   12.4367 C.3     1  LIG1       -0.0254
     33 H           0.2538    7.5380   11.5779 H       1  LIG1        0.0268
     34 H           0.5865    8.1483   12.9950 H       1  LIG1        0.0268
     35 H           0.4173    6.7048   12.8377 H       1  LIG1        0.0268
     36 C           2.7314    8.3900   11.2991 C.3     1  LIG1       -0.0254
     37 H           2.3236    8.3759   10.4962 H       1  LIG1        0.0268
     38 H           3.6546    8.2660   11.2005 H       1  LIG1        0.0268
     39 H           2.4815    9.2702   11.8126 H       1  LIG1        0.0268
     40 C           2.6907    9.5020   17.5951 C.3     1  LIG1        0.0955
     41 C           3.4679    9.2845   18.8858 C.3     1  LIG1       -0.0390
     42 H           3.8238   10.1442   19.1874 H       1  LIG1        0.0251
     43 H           2.8425    8.9031   19.6088 H       1  LIG1        0.0251
     44 H           4.2355    8.7132   18.7472 H       1  LIG1        0.0251
     45 C           1.5216   10.4618   17.8276 C.3     1  LIG1       -0.0390
     46 H           0.9813   10.5993   17.0073 H       1  LIG1        0.0251
     47 H           1.9683   11.2991   18.1246 H       1  LIG1        0.0251
     48 H           0.8911   10.1176   18.4453 H       1  LIG1        0.0251
     49 C           3.5982   10.0163   16.4878 C.3     1  LIG1       -0.0390
     50 H           3.1696    9.9575   15.5650 H       1  LIG1        0.0251
     51 H           4.4047    9.4852   16.3868 H       1  LIG1        0.0251
     52 H           3.8689   10.9225   16.7033 H       1  LIG1        0.0251
@<TRIPOS>BOND
     1    37    36    1
     2    30    28    1
     3    38    36    1
     4    36    39    1
     5    36    27    1
     6    29    28    1
     7    28    31    1
     8    28    27    1
     9    33    32    1
    10    27    32    1
    11    27     3    1
    12    32    35    1
    13    32    34    1
    14     3    26    1
    15    26     2    2
    16    26    24    1
    17    23    22    1
    18    25    24    1
    19    24    22    1
    20    24     6    1
    21    50    49    1
    22    22    21    2
    23     5     1    2
    24    51    49    1
    25    49    52    1
    26    49    40    1
    27     6     1    1
    28     6     7    1
    29    21    18    1
    30    21     7    1
    31    20    18    1
    32    46    45    1
    33     1    40    1
    34     1     4    2
    35    19    18    1
    36    18    15    1
    37     8     7    1
    38    40    45    1
    39    40    41    1
    40     7     9    1
    41    45    47    1
    42    45    48    1
    43    44    41    1
    44    41    42    1
    45    41    43    1
    46    15    17    1
    47    15    16    1
    48    15    12    1
    49    10     9    1
    50     9    11    1
    51     9    12    1
    52    13    12    1
    53    12    14    1
