@<TRIPOS>MOLECULE
?
 60 60 0 0 0
SMALL
GASTEIGER

@<TRIPOS>ATOM
      1 BR          4.3834    1.2553   12.9286 Br      1  LIG1       -0.0503
      2 O          10.6866    6.3409   13.1137 O.2     1  LIG1       -0.2705
      3 N           9.7549    6.0773   15.1903 N.am    1  LIG1       -0.3087
      4 H          10.3318    6.4698   15.5609 H       1  LIG1        0.1493
      5 C           8.2034    2.5565   10.6310 C.ar    1  LIG1       -0.0545
      6 H           8.9736    2.8206   10.1431 H       1  LIG1        0.0623
      7 C           7.3827    1.5484   10.1274 C.ar    1  LIG1       -0.0602
      8 H           7.6103    1.1370    9.3012 H       1  LIG1        0.0618
      9 C           6.2541    1.1327   10.7949 C.ar    1  LIG1       -0.0477
     10 H           5.7083    0.4292   10.4618 H       1  LIG1        0.0629
     11 C           5.9493    1.7942   11.9825 C.ar    1  LIG1        0.0184
     12 C           6.7340    2.7897   12.5215 C.ar    1  LIG1       -0.0406
     13 H           6.4857    3.2030   13.3399 H       1  LIG1        0.0634
     14 C           7.9056    3.1914   11.8566 C.ar    1  LIG1       -0.0236
     15 C           8.8131    4.2194   12.3470 C.2     1  LIG1       -0.0464
     16 H           9.4703    4.5134   11.7287 H       1  LIG1        0.0628
     17 C           8.8481    4.8055   13.5445 C.2     1  LIG1        0.0166
     18 C           8.0218    4.5849   14.7959 C.3     1  LIG1       -0.0045
     19 H           7.8637    3.6197   14.9491 H       1  LIG1        0.0333
     20 H           7.1481    5.0460   14.7288 H       1  LIG1        0.0333
     21 C           8.8766    5.1898   15.9249 C.3     1  LIG1        0.0247
     22 H           9.4201    4.4666   16.3518 H       1  LIG1        0.0499
     23 C           9.8691    5.8358   13.8823 C.2     1  LIG1        0.2404
     24 C           8.0928    5.9155   16.9892 C.3     1  LIG1       -0.0463
     25 H           8.7130    6.3583   17.6069 H       1  LIG1        0.0248
     26 H           7.5417    5.2734   17.4849 H       1  LIG1        0.0248
     27 H           7.5152    6.5861   16.5701 H       1  LIG1        0.0248
     28 BR          5.0014    3.5887   16.5668 Br      2  LIG2       -0.0503
     29 O          -1.2589   -1.5701   16.3958 O.2     2  LIG2       -0.2705
     30 N          -0.1027   -1.6319   14.4215 N.am    2  LIG2       -0.3087
     31 H          -0.6725   -2.1244   13.9478 H       2  LIG2        0.1493
     32 C           1.1531    2.2572   18.8136 C.ar    2  LIG2       -0.0545
     33 H           0.3688    1.9940   19.2810 H       2  LIG2        0.0623
     34 C           1.9592    3.2832   19.3223 C.ar    2  LIG2       -0.0602
     35 H           1.7121    3.7163   20.1309 H       2  LIG2        0.0618
     36 C           3.0950    3.6694   18.6696 C.ar    2  LIG2       -0.0477
     37 H           3.6403    4.3647   19.0174 H       2  LIG2        0.0629
     38 C           3.4352    3.0311   17.4947 C.ar    2  LIG2        0.0184
     39 C           2.6715    2.0109   16.9716 C.ar    2  LIG2       -0.0406
     40 H           2.9393    1.5754   16.1708 H       2  LIG2        0.0634
     41 C           1.5015    1.6208   17.6228 C.ar    2  LIG2       -0.0236
     42 C           0.6236    0.5494   17.1292 C.2     2  LIG2       -0.0464
     43 H          -0.0877    0.3076   17.7111 H       2  LIG2        0.0628
     44 C           0.6798   -0.1299   15.9896 C.2     2  LIG2        0.0166
     45 C           1.6126   -0.0473   14.8057 C.3     2  LIG2       -0.0045
     46 H           2.5348   -0.2853   15.0750 H       2  LIG2        0.0333
     47 H           1.6187    0.8700   14.4317 H       2  LIG2        0.0333
     48 C           1.0752   -1.0559   13.7576 C.3     2  LIG2        0.0247
     49 H           1.7559   -1.7753   13.6173 H       2  LIG2        0.0499
     50 C          -0.3376   -1.1868   15.6636 C.2     2  LIG2        0.2404
     51 C           0.7413   -0.4543   12.4625 C.3     2  LIG2       -0.0463
     52 H           0.4521   -1.1549   11.8428 H       2  LIG2        0.0248
     53 H           1.5310   -0.0010   12.1005 H       2  LIG2        0.0248
     54 H           0.0172    0.1955   12.5825 H       2  LIG2        0.0248
     55 O          -2.4069    3.5941   18.9995 O.3     3  HOH3       -0.4105
     56 H          -1.8965    3.3846   18.3741 H       0  HOH0        0.2052
     57 H          -2.4097    2.8535   19.3774 H       0  HOH0        0.2052
     58 O          -0.9951    1.5938   10.4638 O.3     4  HOH4       -0.4105
     59 H          -1.4012    1.5402   11.1858 H       0  HOH0        0.2052
     60 H          -0.8786    0.7822   10.2100 H       0  HOH0        0.2052
@<TRIPOS>BOND
     1     8     7    1
     2     7     5   ar
     3     7     9   ar
     4     6     5    1
     5    60    58    1
     6    10     9    1
     7    58    59    1
     8     5    14   ar
     9     9    11   ar
    10    16    15    1
    11    52    51    1
    12    14    15    1
    13    14    12   ar
    14    11    12   ar
    15    11     1    1
    16    53    51    1
    17    15    17    2
    18    51    54    1
    19    51    48    1
    20    12    13    1
    21     2    23    2
    22    17    23    1
    23    17    18    1
    24    49    48    1
    25    48    30    1
    26    48    45    1
    27    23     3   am
    28    31    30    1
    29    30    50   am
    30    47    45    1
    31    20    18    1
    32    18    19    1
    33    18    21    1
    34    45    46    1
    35    45    44    1
    36     3     4    1
    37     3    21    1
    38    50    44    1
    39    50    29    2
    40    21    22    1
    41    21    24    1
    42    44    42    2
    43    40    39    1
    44    28    38    1
    45    27    24    1
    46    39    38   ar
    47    39    41   ar
    48    24    26    1
    49    24    25    1
    50    42    41    1
    51    42    43    1
    52    38    36   ar
    53    41    32   ar
    54    56    55    1
    55    36    37    1
    56    36    34   ar
    57    32    33    1
    58    32    34   ar
    59    55    57    1
    60    34    35    1
