@<TRIPOS>MOLECULE
?
 48 51 0 0 0
SMALL
GASTEIGER

@<TRIPOS>ATOM
      1 O           0.7262    3.4752   -0.8948 O.3     1  LIG1       -0.4914
      2 O           1.8279    5.3950    0.4715 O.3     1  LIG1       -0.4914
      3 O           4.9846    3.7121    9.4936 O.3     1  LIG1       -0.5033
      4 O           3.2259    2.3031   10.7807 O.3     1  LIG1       -0.4914
      5 N           0.5440    1.8049    5.3258 N.3     1  LIG1       -0.2906
      6 C          -0.6985    1.3589    4.6827 C.3     1  LIG1        0.0038
      7 H          -1.3689    2.0867    4.7008 H       1  LIG1        0.0430
      8 H          -1.0704    0.5808    5.1680 H       1  LIG1        0.0430
      9 C          -0.3904    0.9757    3.2503 C.3     1  LIG1       -0.0144
     10 H           0.2302    0.2043    3.2367 H       1  LIG1        0.0326
     11 H          -1.2244    0.7095    2.7893 H       1  LIG1        0.0326
     12 C           0.2355    2.1455    2.5347 C.ar    1  LIG1       -0.0378
     13 C           0.1697    2.2299    1.1347 C.ar    1  LIG1       -0.0128
     14 H          -0.2549    1.5373    0.6428 H       1  LIG1        0.0658
     15 C           0.7176    3.3139    0.4602 C.ar    1  LIG1        0.1618
     16 C           0.0937    2.4713   -1.6804 C.3     1  LIG1        0.0790
     17 H          -0.8475    2.3965   -1.4187 H       1  LIG1        0.0660
     18 H           0.5425    1.6121   -1.5348 H       1  LIG1        0.0660
     19 H           0.1518    2.7126   -2.6279 H       1  LIG1        0.0660
     20 C           1.3110    4.3530    1.1984 C.ar    1  LIG1        0.1618
     21 C           1.6412    6.6957    1.0177 C.3     1  LIG1        0.0790
     22 H           1.9847    7.3655    0.3908 H       1  LIG1        0.0660
     23 H           2.1242    6.7654    1.8662 H       1  LIG1        0.0660
     24 H           0.6855    6.8515    1.1724 H       1  LIG1        0.0660
     25 C           1.3782    4.2630    2.5764 C.ar    1  LIG1       -0.0114
     26 H           1.7814    4.9675    3.0697 H       1  LIG1        0.0659
     27 C           0.8642    3.1544    3.2577 C.ar    1  LIG1       -0.0231
     28 C           0.9744    3.1078    4.7761 C.3     1  LIG1        0.0403
     29 H           0.3696    3.8115    5.1482 H       1  LIG1        0.0516
     30 C           2.3929    3.3960    5.2773 C.3     1  LIG1       -0.0074
     31 H           3.0334    2.8252    4.7829 H       1  LIG1        0.0332
     32 H           2.6187    4.3408    5.0859 H       1  LIG1        0.0332
     33 C           2.5436    3.1403    6.7615 C.ar    1  LIG1       -0.0375
     34 C           3.6853    3.5925    7.4391 C.ar    1  LIG1       -0.0130
     35 H           4.3347    4.0987    6.9662 H       1  LIG1        0.0658
     36 C           3.8881    3.3194    8.7791 C.ar    1  LIG1        0.1587
     37 C           2.9287    2.5555    9.4729 C.ar    1  LIG1        0.1616
     38 C           2.3166    1.4914   11.5209 C.3     1  LIG1        0.0790
     39 H           2.2295    0.6178   11.0865 H       1  LIG1        0.0660
     40 H           1.4401    1.9299   11.5537 H       1  LIG1        0.0660
     41 H           2.6550    1.3700   12.4316 H       1  LIG1        0.0660
     42 C           1.7919    2.1233    8.8188 C.ar    1  LIG1       -0.0116
     43 H           1.1387    1.6226    9.2940 H       1  LIG1        0.0658
     44 C           1.5908    2.4163    7.4592 C.ar    1  LIG1       -0.0264
     45 C           0.3432    1.9309    6.7745 C.3     1  LIG1        0.0250
     46 H           0.0850    1.0514    7.1475 H       1  LIG1        0.0476
     47 H          -0.3958    2.5662    6.9492 H       1  LIG1        0.0476
     48 H           5.4611    4.4406    9.0986 H       1  LIG1        0.2923
@<TRIPOS>BOND
     1    19    16    1
     2    16    18    1
     3    16    17    1
     4    16     1    1
     5     1    15    1
     6    22    21    1
     7    15    13   ar
     8    15    20   ar
     9     2    21    1
    10     2    20    1
    11    14    13    1
    12    21    24    1
    13    21    23    1
    14    13    12   ar
    15    20    25   ar
    16    12     9    1
    17    12    27   ar
    18    25    26    1
    19    25    27   ar
    20    11     9    1
    21    10     9    1
    22     9     6    1
    23    27    28    1
    24     6     7    1
    25     6     8    1
    26     6     5    1
    27    28    29    1
    28    28    30    1
    29    28     5    1
    30    31    30    1
    31    32    30    1
    32    30    33    1
    33     5    45    1
    34    33    34   ar
    35    33    44   ar
    36    45    47    1
    37    45    46    1
    38    45    44    1
    39    35    34    1
    40    34    36   ar
    41    44    42   ar
    42    36    37   ar
    43    36     3    1
    44    42    43    1
    45    42    37   ar
    46    48     3    1
    47    37     4    1
    48     4    38    1
    49    39    38    1
    50    38    40    1
    51    38    41    1
