@<TRIPOS>MOLECULE
6,10-dimethyl-15b-(thiophospha)naphtho[1,8-ab]perylene
 49 55 0 0 0
SMALL
GASTEIGER

@<TRIPOS>ATOM
      1 S          -0.2370   11.5668   11.7812 S.3     1  LIG1        0.1469
      2 P           1.2109   11.3364   13.0916 P.3     1  LIG1        0.1890
      3 C           2.8275   11.5130   12.3003 C.ar    1  LIG1        0.1266
      4 C           1.2891   12.5382   14.4216 C.ar    1  LIG1        0.1338
      5 C           1.0009    9.8064   14.0255 C.ar    1  LIG1        0.1266
      6 C           3.3272   10.5182   11.4995 C.ar    1  LIG1       -0.0171
      7 C           1.4875    8.5844   13.6140 C.ar    1  LIG1       -0.0171
      8 C           4.4792   10.7161   10.7133 C.ar    1  LIG1       -0.0574
      9 C           5.0314   11.9607   10.6316 C.ar    1  LIG1       -0.0538
     10 C           4.4872   13.0442   11.3675 C.ar    1  LIG1       -0.0135
     11 C           4.9661   14.3631   11.1804 C.ar    1  LIG1       -0.0536
     12 C           4.3883   15.4036   11.8260 C.ar    1  LIG1       -0.0577
     13 C           3.3981   15.2042   12.8138 C.ar    1  LIG1       -0.0419
     14 C           2.9768   13.9082   13.1131 C.ar    1  LIG1        0.0003
     15 C           3.4274   12.8208   12.2835 C.ar    1  LIG1        0.0340
     16 C           2.8154   16.4558   13.4359 C.3     1  LIG1       -0.0391
     17 C           2.1849   13.6174   14.3336 C.ar    1  LIG1        0.0275
     18 C           2.4162   14.3643   15.4968 C.ar    1  LIG1       -0.0502
     19 C           1.7341   14.0908   16.6653 C.ar    1  LIG1       -0.0604
     20 C           0.8050   13.0720   16.7171 C.ar    1  LIG1       -0.0502
     21 C           0.5597   12.2745   15.5999 C.ar    1  LIG1        0.0275
     22 C           1.0295    7.3860   14.1795 C.ar    1  LIG1       -0.0574
     23 C           0.0048    7.4149   15.0924 C.ar    1  LIG1       -0.0538
     24 C          -0.5024    8.6395   15.5619 C.ar    1  LIG1       -0.0135
     25 C          -1.5657    8.6853   16.5051 C.ar    1  LIG1       -0.0536
     26 C          -2.0355    9.8776   16.9567 C.ar    1  LIG1       -0.0577
     27 C          -1.4266   11.1036   16.6061 C.ar    1  LIG1       -0.0419
     28 C          -0.3312   11.0949   15.7415 C.ar    1  LIG1        0.0003
     29 C           0.0525    9.8646   15.1014 C.ar    1  LIG1        0.0340
     30 C          -2.0539   12.3490   17.1711 C.3     1  LIG1       -0.0391
     31 H           2.8905    9.6746   11.4773 H       1  LIG1        0.0657
     32 H           2.1516    8.5539   12.9358 H       1  LIG1        0.0657
     33 H           4.8697    9.9900   10.2421 H       1  LIG1        0.0619
     34 H           5.7887   12.1028   10.0755 H       1  LIG1        0.0624
     35 H           5.7006   14.5174   10.5977 H       1  LIG1        0.0624
     36 H           4.6565   16.2888   11.6096 H       1  LIG1        0.0621
     37 H           1.9469   16.2715   13.7724 H       1  LIG1        0.0278
     38 H           3.3775   16.7403   14.1469 H       1  LIG1        0.0278
     39 H           2.7617   17.1411   12.7812 H       1  LIG1        0.0278
     40 H           3.0544   15.0679   15.4817 H       1  LIG1        0.0625
     41 H           1.8996   14.6139   17.4401 H       1  LIG1        0.0618
     42 H           0.3325   12.9081   17.5243 H       1  LIG1        0.0625
     43 H           1.4221    6.5586   13.9287 H       1  LIG1        0.0619
     44 H          -0.3648    6.5994   15.4113 H       1  LIG1        0.0624
     45 H          -1.9488    7.8772   16.8251 H       1  LIG1        0.0624
     46 H          -2.8015    9.8886   17.5191 H       1  LIG1        0.0621
     47 H          -1.6570   12.5531   18.0105 H       1  LIG1        0.0278
     48 H          -1.9147   13.0714   16.5709 H       1  LIG1        0.0278
     49 H          -2.9862   12.2092   17.2872 H       1  LIG1        0.0278
@<TRIPOS>BOND
     1    34     9    1
     2    33     8    1
     3    35    11    1
     4     9     8   ar
     5     9    10   ar
     6     8     6   ar
     7    11    10   ar
     8    11    12   ar
     9    10    15   ar
    10    31     6    1
    11     6     3   ar
    12    36    12    1
    13     1     2    1
    14    12    13   ar
    15    15     3   ar
    16    15    14   ar
    17     3     2    1
    18    39    16    1
    19    13    14   ar
    20    13    16    1
    21    32     7    1
    22     2     5    1
    23     2     4    1
    24    14    17    1
    25    16    37    1
    26    16    38    1
    27     7     5   ar
    28     7    22   ar
    29    43    22    1
    30     5    29   ar
    31    22    23   ar
    32    17     4   ar
    33    17    18   ar
    34     4    21   ar
    35    23    44    1
    36    23    24   ar
    37    29    24   ar
    38    29    28   ar
    39    40    18    1
    40    18    19   ar
    41    24    25   ar
    42    21    28    1
    43    21    20   ar
    44    28    27   ar
    45    25    45    1
    46    25    26   ar
    47    48    30    1
    48    27    26   ar
    49    27    30    1
    50    19    20   ar
    51    19    41    1
    52    20    42    1
    53    26    46    1
    54    30    49    1
    55    30    47    1
