@<TRIPOS>MOLECULE
?
 42 43 0 0 0
SMALL
GASTEIGER

@<TRIPOS>ATOM
      1 S           6.6156    0.6874   10.9550 S.O2    1  LIG1        0.1785
      2 BR         11.1118    0.2137    8.5394 Br      1  LIG1       -0.0839
      3 O           6.7245   -0.0958   12.1574 O.2     1  LIG1       -0.1251
      4 O           5.2914    1.1097   10.5902 O.2     1  LIG1       -0.1251
      5 N           8.1159   -0.4915    7.7317 N.pl3   1  LIG1       -0.2322
      6 H           8.0593   -0.2849    6.9139 H       1  LIG1        0.2914
      7 N           7.3636   -0.1670    9.8392 N.2     1  LIG1        0.0896
      8 C          10.3817   -1.3487    7.5806 C.3     1  LIG1        0.0535
      9 H          10.3400   -1.1287    6.6161 H       1  LIG1        0.0458
     10 C          11.3113   -2.5383    7.7578 C.3     1  LIG1       -0.0368
     11 H          11.4141   -2.7393    8.7106 H       1  LIG1        0.0277
     12 H          12.1947   -2.3262    7.3903 H       1  LIG1        0.0277
     13 C          10.7273   -3.7453    7.0345 C.3     1  LIG1       -0.0518
     14 H          11.3247   -4.5138    7.1478 H       1  LIG1        0.0266
     15 H          10.6603   -3.5514    6.0773 H       1  LIG1        0.0266
     16 C           9.3464   -4.0896    7.5821 C.3     1  LIG1       -0.0493
     17 H           8.9844   -4.8581    7.0940 H       1  LIG1        0.0267
     18 H           9.4238   -4.3389    8.5262 H       1  LIG1        0.0267
     19 C           8.3989   -2.9071    7.4441 C.3     1  LIG1       -0.0129
     20 H           7.5483   -3.1248    7.8813 H       1  LIG1        0.0305
     21 H           8.2172   -2.7504    6.4941 H       1  LIG1        0.0305
     22 C           8.9710   -1.6257    8.0657 C.3     1  LIG1        0.1010
     23 H           8.9888   -1.7310    9.0505 H       1  LIG1        0.0772
     24 C           7.3840    0.2090    8.5814 C.2     1  LIG1        0.3103
     25 C           6.6649    1.3756    7.9960 C.3     1  LIG1        0.0411
     26 H           5.7175    1.3004    8.1863 H       1  LIG1        0.0351
     27 H           6.8005    1.3898    7.0345 H       1  LIG1        0.0351
     28 H           7.0090    2.1956    8.3824 H       1  LIG1        0.0351
     29 C           7.6004    2.1417   11.1828 C.ar    1  LIG1        0.1347
     30 C           8.9412    1.9937   11.4820 C.ar    1  LIG1       -0.0326
     31 H           9.3240    1.1381   11.5445 H       1  LIG1        0.0638
     32 C           9.7054    3.1200   11.6883 C.ar    1  LIG1       -0.0569
     33 H          10.6230    3.0250   11.8727 H       1  LIG1        0.0621
     34 C           9.1527    4.3975   11.6302 C.ar    1  LIG1       -0.0503
     35 C           7.8105    4.5067   11.3179 C.ar    1  LIG1       -0.0569
     36 H           7.4217    5.3599   11.2554 H       1  LIG1        0.0621
     37 C           7.0344    3.3970   11.0971 C.ar    1  LIG1       -0.0326
     38 H           6.1227    3.4912   10.8879 H       1  LIG1        0.0638
     39 C          10.0197    5.5958   11.8829 C.3     1  LIG1       -0.0397
     40 H          10.1761    5.6852   12.8372 H       1  LIG1        0.0278
     41 H           9.5743    6.3920   11.5532 H       1  LIG1        0.0278
     42 H          10.8674    5.4850   11.4254 H       1  LIG1        0.0278
@<TRIPOS>BOND
     1    15    13    1
     2    21    19    1
     3     9     8    1
     4     6     5    1
     5    27    25    1
     6    13    14    1
     7    13    16    1
     8    13    10    1
     9    17    16    1
    10    12    10    1
    11    19    16    1
    12    19    20    1
    13    19    22    1
    14     8    10    1
    15     8    22    1
    16     8     2    1
    17    16    18    1
    18     5    22    1
    19     5    24    1
    20    10    11    1
    21    25    26    1
    22    25    28    1
    23    25    24    1
    24    22    23    1
    25    24     7    2
    26     7     1    1
    27     4     1    2
    28    38    37    1
    29     1    29    1
    30     1     3    2
    31    37    29   ar
    32    37    35   ar
    33    29    30   ar
    34    36    35    1
    35    35    34   ar
    36    42    39    1
    37    30    31    1
    38    30    32   ar
    39    41    39    1
    40    34    32   ar
    41    34    39    1
    42    32    33    1
    43    39    40    1
