@<TRIPOS>MOLECULE
?
 34 33 0 0 0
SMALL
GASTEIGER

@<TRIPOS>ATOM
      1 O           2.3247    0.1758   15.0744 O.2     1  LIG1       -0.4900
      2 O          -0.2247   -0.4225   13.9120 O.3     1  LIG1       -0.3742
      3 O          -0.7191   -2.5108   11.9394 O.3     1  LIG1       -0.3752
      4 C           4.5341    0.3185   18.0510 C.3     1  LIG1        0.0250
      5 C           3.3761    0.4911   17.2500 C.2     1  LIG1       -0.0334
      6 C           3.3650    0.0465   15.9505 C.2     1  LIG1        0.1173
      7 C           4.5065   -0.5952   15.4099 C.2     1  LIG1       -0.0202
      8 C           5.6222   -0.7655   16.1632 C.2     1  LIG1       -0.0582
      9 C           1.0895    0.6922   15.5644 C.3     1  LIG1        0.1128
     10 H           1.2071    1.5845   15.9941 H       1  LIG1        0.0720
     11 H           0.7115    0.0631   16.2394 H       1  LIG1        0.0720
     12 C           0.1634    0.8419   14.3982 C.3     1  LIG1        0.0818
     13 H          -0.5997    1.3323   14.6820 H       1  LIG1        0.0594
     14 H           0.6778    1.3638   13.6117 H       1  LIG1        0.0594
     15 C          -1.0746   -0.3193   12.7880 C.3     1  LIG1        0.0711
     16 H          -0.5491    0.1104   12.0631 H       1  LIG1        0.0583
     17 H          -1.7756    0.3469   13.0054 H       1  LIG1        0.0583
     18 C          -1.6894   -1.6342   12.4534 C.3     1  LIG1        0.0711
     19 H          -2.1278   -2.0418   13.2650 H       1  LIG1        0.0583
     20 H          -2.3754   -1.4899   11.7680 H       1  LIG1        0.0583
     21 C          -1.2849   -3.7398   11.5475 C.3     1  LIG1        0.0711
     22 H          -1.9182   -3.5238   10.7564 H       1  LIG1        0.0583
     23 H          -1.8281   -4.1072   12.1787 H       1  LIG1        0.0583
     24 C          -0.2849   -4.6590   10.9910 C.3     1  LIG1        0.0706
     25 H           0.4243   -4.7828   11.6418 H       1  LIG1        0.0582
     26 H          -0.7000   -5.5223   10.8399 H       1  LIG1        0.0582
     27 O           0.2351   -4.2389    9.8745 O.3     1  LIG1       -0.3807
     28 C           0.9199   -5.0477    9.0833 C.3     1  LIG1        0.0365
     29 H           1.1329   -4.5912    8.2673 H       1  LIG1        0.0524
     30 H           0.3922   -5.8250    8.8878 H       1  LIG1        0.0524
     31 H           1.7309   -5.3133    9.5225 H       1  LIG1        0.0524
     32 H           2.6367    0.9696   17.6493 H       1  LIG1        0.0615
     33 H           4.4362   -0.9302   14.5380 H       1  LIG1        0.0654
     34 H           6.4084   -1.2456   15.7967 H       1  LIG1        0.0619
@<TRIPOS>BOND
     1    29    28    1
     2    30    28    1
     3    28    31    1
     4    28    27    1
     5    27    24    1
     6    22    21    1
     7    26    24    1
     8    24    21    1
     9    24    25    1
    10    21     3    1
    11    21    23    1
    12    20    18    1
    13     3    18    1
    14    16    15    1
    15    18    15    1
    16    18    19    1
    17    15    17    1
    18    15     2    1
    19    14    12    1
    20     2    12    1
    21    12    13    1
    22    12     9    1
    23    33     7    1
    24     1     9    1
    25     1     6    1
    26     7     6    1
    27     7     8    2
    28     9    10    1
    29     9    11    1
    30    34     8    1
    31     6     5    2
    32     5    32    1
    33     5     4    1
