@<TRIPOS>MOLECULE
?
 44 45 0 0 0
SMALL
GASTEIGER

@<TRIPOS>ATOM
      1 S           6.7987    5.8530   18.7574 S.O2    1  LIG1        0.0639
      2 O           6.1988    7.0927   18.3728 O.2     1  LIG1       -0.1527
      3 O           8.0937    5.5004   18.2551 O.2     1  LIG1       -0.1527
      4 N           5.7267    4.6758   18.2791 N.3     1  LIG1       -0.1325
      5 N           4.9418    2.6590   19.0381 N.3     1  LIG1       -0.1912
      6 N           7.1216    2.6985   18.1528 N.3     1  LIG1       -0.2721
      7 C           7.0393    5.4797   24.7863 C.3     1  LIG1       -0.0397
      8 H           6.3219    6.0121   25.1891 H       1  LIG1        0.0278
      9 H           7.9075    5.8132   25.0939 H       1  LIG1        0.0278
     10 H           6.9374    4.5417   25.0506 H       1  LIG1        0.0278
     11 C           6.9630    5.5901   23.2838 C.ar    1  LIG1       -0.0503
     12 C           7.6820    4.6870   22.4885 C.ar    1  LIG1       -0.0570
     13 H           8.2069    4.0097   22.9005 H       1  LIG1        0.0621
     14 C           7.6338    4.7741   21.1069 C.ar    1  LIG1       -0.0351
     15 H           8.1114    4.1532   20.5687 H       1  LIG1        0.0637
     16 C           6.8762    5.7822   20.5151 C.ar    1  LIG1        0.1056
     17 C           6.1662    6.6932   21.2862 C.ar    1  LIG1       -0.0351
     18 H           5.6542    7.3784   20.8737 H       1  LIG1        0.0637
     19 C           6.2151    6.5891   22.6680 C.ar    1  LIG1       -0.0570
     20 H           5.7312    7.2086   23.2012 H       1  LIG1        0.0621
     21 C           5.9242    3.2693   18.5153 C.3     1  LIG1        0.2143
     22 C           3.8724    3.6294   19.3505 C.3     1  LIG1        0.0514
     23 C           4.2740    4.9202   18.5601 C.3     1  LIG1        0.0518
     24 H           4.1728    5.7231   19.1476 H       1  LIG1        0.0497
     25 C           7.6042    2.9652   16.7913 C.3     1  LIG1       -0.0100
     26 H           7.4204    3.8999   16.5562 H       1  LIG1        0.0392
     27 H           7.1436    2.3741   16.1604 H       1  LIG1        0.0392
     28 H           8.5688    2.8020   16.7487 H       1  LIG1        0.0392
     29 C           7.2351    1.2847   18.5199 C.3     1  LIG1       -0.0100
     30 H           6.6091    0.7563   17.9817 H       1  LIG1        0.0392
     31 H           7.0208    1.1758   19.4699 H       1  LIG1        0.0392
     32 H           8.1499    0.9759   18.3537 H       1  LIG1        0.0392
     33 C           2.5383    3.0394   18.9003 C.3     1  LIG1       -0.0439
     34 H           2.3151    2.2699   19.4634 H       1  LIG1        0.0248
     35 H           2.6072    2.7513   17.9665 H       1  LIG1        0.0248
     36 H           1.8369    3.7188   18.9810 H       1  LIG1        0.0248
     37 C           3.8390    3.8788   20.8605 C.3     1  LIG1       -0.0439
     38 H           4.6944    4.2621   21.1463 H       1  LIG1        0.0248
     39 H           3.6873    3.0309   21.3280 H       1  LIG1        0.0248
     40 H           3.1144    4.5032   21.0727 H       1  LIG1        0.0248
     41 C           3.5590    5.1539   17.2402 C.3     1  LIG1       -0.0460
     42 H           3.6601    4.3634   16.6687 H       1  LIG1        0.0246
     43 H           3.9482    5.9333   16.7920 H       1  LIG1        0.0246
     44 H           2.6072    5.3159   17.4085 H       1  LIG1        0.0246
@<TRIPOS>BOND
     1    27    25    1
     2    26    25    1
     3    42    41    1
     4    28    25    1
     5    25     6    1
     6    43    41    1
     7    41    44    1
     8    41    23    1
     9    35    33    1
    10    30    29    1
    11     6    21    1
    12     6    29    1
    13     3     1    2
    14     4    21    1
    15     4    23    1
    16     4     1    1
    17    32    29    1
    18     2     1    2
    19    21     5    1
    20    29    31    1
    21    23    24    1
    22    23    22    1
    23     1    16    1
    24    33    36    1
    25    33    22    1
    26    33    34    1
    27     5    22    1
    28    22    37    1
    29    16    14   ar
    30    16    17   ar
    31    15    14    1
    32    37    40    1
    33    37    38    1
    34    37    39    1
    35    18    17    1
    36    14    12   ar
    37    17    19   ar
    38    12    13    1
    39    12    11   ar
    40    19    20    1
    41    19    11   ar
    42    11     7    1
    43     7    10    1
    44     7     9    1
    45     7     8    1
