@<TRIPOS>MOLECULE
?
 39 40 0 0 0
SMALL
GASTEIGER

@<TRIPOS>ATOM
      1 N          -1.4463    7.6358   12.0200 N.3     1  LIG1       -0.2671
      2 C          -1.6887    8.7109   11.0362 C.3     1  LIG1        0.1356
      3 H          -2.6209    8.8055   10.6868 H       1  LIG1        0.0600
      4 C          -1.4724    9.0056   12.4873 C.3     1  LIG1        0.1356
      5 H          -2.2913    9.2687   12.9968 H       1  LIG1        0.0600
      6 C          -2.6694    6.8590   12.3612 C.3     1  LIG1        0.0345
      7 H          -3.4728    7.4429   12.2470 H       1  LIG1        0.0510
      8 C          -2.7734    5.6820   11.4209 C.ar    1  LIG1       -0.0305
      9 C          -3.8966    5.5108   10.6232 C.ar    1  LIG1       -0.0571
     10 H          -4.5900    6.1596   10.6365 H       1  LIG1        0.0621
     11 C          -4.0122    4.3933    9.8024 C.ar    1  LIG1       -0.0615
     12 H          -4.7892    4.2761    9.2685 H       1  LIG1        0.0618
     13 C          -3.0038    3.4561    9.7624 C.ar    1  LIG1       -0.0617
     14 H          -3.0802    2.6991    9.1930 H       1  LIG1        0.0618
     15 C          -1.8863    3.6174   10.5461 C.ar    1  LIG1       -0.0615
     16 H          -1.1953    2.9658   10.5270 H       1  LIG1        0.0618
     17 C          -1.7669    4.7303   11.3641 C.ar    1  LIG1       -0.0571
     18 H          -0.9851    4.8421   11.8921 H       1  LIG1        0.0621
     19 C          -2.5664    6.4300   13.8117 C.3     1  LIG1       -0.0453
     20 H          -3.3252    5.8514   14.0365 H       1  LIG1        0.0248
     21 H          -2.5783    7.2221   14.3885 H       1  LIG1        0.0248
     22 H          -1.7299    5.9388   13.9493 H       1  LIG1        0.0248
     23 O           0.5803    8.7488   10.2729 O.2     1  LIG1       -0.2490
     24 C          -0.5733    8.9993   10.0828 C.2     1  LIG1        0.3267
     25 O          -1.0517    9.6202    8.9940 O.3     1  LIG1       -0.4638
     26 C          -0.0429   10.0140    8.0179 C.3     1  LIG1        0.0897
     27 H           0.3312    9.2111    7.5751 H       1  LIG1        0.0694
     28 H           0.6957   10.4944    8.4698 H       1  LIG1        0.0694
     29 C          -0.6793   10.8945    7.0131 C.3     1  LIG1       -0.0306
     30 H          -0.0248   11.1297    6.3239 H       1  LIG1        0.0262
     31 H          -0.9999   11.7110    7.4509 H       1  LIG1        0.0262
     32 H          -1.4355   10.4268    6.6005 H       1  LIG1        0.0262
     33 O           0.6651    9.0272   13.6047 O.2     1  LIG1       -0.2490
     34 C          -0.1936    9.5923   12.9855 C.2     1  LIG1        0.3264
     35 O          -0.1580   10.9053   12.6824 O.3     1  LIG1       -0.4668
     36 C           0.9910   11.6425   13.1684 C.3     1  LIG1        0.0817
     37 H           0.9144   12.5815   12.8992 H       1  LIG1        0.0661
     38 H           1.8094   11.2595   12.7898 H       1  LIG1        0.0661
     39 H           1.0261   11.5848   14.1460 H       1  LIG1        0.0661
@<TRIPOS>BOND
     1    30    29    1
     2    32    29    1
     3    29    31    1
     4    29    26    1
     5    27    26    1
     6    26    28    1
     7    26    25    1
     8    25    24    1
     9    14    13    1
    10    12    11    1
    11    13    11   ar
    12    13    15   ar
    13    11     9   ar
    14    24    23    2
    15    24     2    1
    16    16    15    1
    17    15    17   ar
    18     9    10    1
    19     9     8   ar
    20     3     2    1
    21     2     1    1
    22     2     4    1
    23    17     8   ar
    24    17    18    1
    25     8     6    1
    26     1     6    1
    27     1     4    1
    28     7     6    1
    29     6    19    1
    30     4    34    1
    31     4     5    1
    32    35    34    1
    33    35    36    1
    34    38    36    1
    35    37    36    1
    36    34    33    2
    37    36    39    1
    38    19    22    1
    39    19    20    1
    40    19    21    1
