@<TRIPOS>MOLECULE
?
 68 71 0 0 0
SMALL
GASTEIGER

@<TRIPOS>ATOM
      1 O           1.3996    4.3177    4.8007 O.3     1  LIG1       -0.5061
      2 O           5.8502    9.5930    2.2902 O.3     1  LIG1       -0.5061
      3 N           3.4135    5.9368    5.0203 N.2     1  LIG1       -0.2852
      4 N           4.0818    8.5869    3.9105 N.2     1  LIG1       -0.2852
      5 C           4.1192    6.9801    5.7679 C.3     1  LIG1        0.0761
      6 H           5.0959    6.9120    5.5631 H       1  LIG1        0.0568
      7 C           3.6074    8.3619    5.2817 C.3     1  LIG1        0.0761
      8 H           2.6076    8.3464    5.2722 H       1  LIG1        0.0568
      9 C           4.0427    5.2258    4.1599 C.2     1  LIG1        0.0332
     10 H           4.9482    5.4322    3.9611 H       1  LIG1        0.0832
     11 C           3.4064    4.1144    3.4849 C.ar    1  LIG1        0.0341
     12 C           4.0765    3.4426    2.4536 C.ar    1  LIG1       -0.0497
     13 H           4.9488    3.7212    2.1997 H       1  LIG1        0.0625
     14 C           3.4823    2.3755    1.7956 C.ar    1  LIG1       -0.0609
     15 H           3.9294    1.9494    1.0760 H       1  LIG1        0.0618
     16 C           2.2393    1.9390    2.1957 C.ar    1  LIG1       -0.0583
     17 H           1.8497    1.1867    1.7654 H       1  LIG1        0.0619
     18 C           1.5531    2.5675    3.2004 C.ar    1  LIG1       -0.0195
     19 H           0.6956    2.2538    3.4630 H       1  LIG1        0.0654
     20 C           2.1213    3.6727    3.8407 C.ar    1  LIG1        0.1254
     21 C           3.2498    8.5817    2.9441 C.2     1  LIG1        0.0332
     22 H           2.3484    8.3320    3.1123 H       1  LIG1        0.0832
     23 C           3.6471    8.9511    1.5860 C.ar    1  LIG1        0.0341
     24 C           2.7113    8.8531    0.5451 C.ar    1  LIG1       -0.0497
     25 H           1.8497    8.4940    0.7213 H       1  LIG1        0.0625
     26 C           3.0250    9.2731   -0.7356 C.ar    1  LIG1       -0.0609
     27 H           2.3893    9.1905   -1.4346 H       1  LIG1        0.0618
     28 C           4.2793    9.8159   -0.9875 C.ar    1  LIG1       -0.0583
     29 H           4.4964   10.1110   -1.8650 H       1  LIG1        0.0619
     30 C           5.2169    9.9325    0.0283 C.ar    1  LIG1       -0.0195
     31 H           6.0685   10.3133   -0.1514 H       1  LIG1        0.0654
     32 C           4.9050    9.4877    1.3103 C.ar    1  LIG1        0.1254
     33 C           4.0717    9.5466    6.1516 C.3     1  LIG1       -0.0166
     34 H           3.6833    9.4124    7.0614 H       1  LIG1        0.0322
     35 C           3.5238   10.8788    5.6188 C.3     1  LIG1       -0.0482
     36 H           3.9146   11.0635    4.7302 H       1  LIG1        0.0269
     37 H           2.5417   10.8138    5.5152 H       1  LIG1        0.0269
     38 C           3.8624   12.0253    6.5741 C.3     1  LIG1       -0.0527
     39 H           3.5368   12.8787    6.1927 H       1  LIG1        0.0265
     40 H           3.4010   11.8819    7.4360 H       1  LIG1        0.0265
     41 C           5.3616   12.1203    6.8128 C.3     1  LIG1       -0.0530
     42 H           5.5419   12.8137    7.4958 H       1  LIG1        0.0265
     43 H           5.8105   12.3937    5.9735 H       1  LIG1        0.0265
     44 C           5.9404   10.7870    7.2822 C.3     1  LIG1       -0.0527
     45 H           5.5852   10.5744    8.1812 H       1  LIG1        0.0265
     46 H           6.9248   10.8644    7.3523 H       1  LIG1        0.0265
     47 C           5.5905    9.6529    6.3198 C.3     1  LIG1       -0.0482
     48 H           5.9463    8.7984    6.6709 H       1  LIG1        0.0269
     49 H           6.0110    9.8231    5.4395 H       1  LIG1        0.0269
     50 C           3.9158    6.7242    7.2758 C.3     1  LIG1       -0.0166
     51 H           4.4293    7.4280    7.7668 H       1  LIG1        0.0322
     52 C           2.4652    6.8253    7.7317 C.3     1  LIG1       -0.0482
     53 H           1.9125    6.1917    7.2089 H       1  LIG1        0.0269
     54 H           2.1296    7.7407    7.5556 H       1  LIG1        0.0269
     55 C           2.3223    6.5126    9.2205 C.3     1  LIG1       -0.0527
     56 H           2.7908    7.2082    9.7473 H       1  LIG1        0.0265
     57 H           1.3640    6.5364    9.4684 H       1  LIG1        0.0265
     58 C           2.8975    5.1463    9.5660 C.3     1  LIG1       -0.0530
     59 H           2.8181    4.9874   10.5403 H       1  LIG1        0.0265
     60 H           2.3881    4.4405    9.0938 H       1  LIG1        0.0265
     61 C           4.3564    5.0854    9.1555 C.3     1  LIG1       -0.0527
     62 H           4.7181    4.1866    9.3608 H       1  LIG1        0.0265
     63 H           4.8735    5.7490    9.6756 H       1  LIG1        0.0265
     64 C           4.5183    5.3713    7.6663 C.3     1  LIG1       -0.0482
     65 H           4.0753    4.6541    7.1451 H       1  LIG1        0.0269
     66 H           5.4814    5.3641    7.4360 H       1  LIG1        0.0269
     67 H           2.0519    5.1288    5.0370 H       1  LIG1        0.2922
     68 H           5.3551    9.1637    2.9210 H       1  LIG1        0.2922
@<TRIPOS>BOND
     1    29    28    1
     2    27    26    1
     3    28    26   ar
     4    28    30   ar
     5    26    24   ar
     6    31    30    1
     7    30    32   ar
     8    24    25    1
     9    24    23   ar
    10    15    14    1
    11    32    23   ar
    12    32     2    1
    13    23    21    1
    14    17    16    1
    15    14    16   ar
    16    14    12   ar
    17    16    18   ar
    18    13    12    1
    19     2    68    1
    20    12    11   ar
    21    21    22    1
    22    21     4    2
    23    18    19    1
    24    18    20   ar
    25    11    20   ar
    26    11     9    1
    27    20     1    1
    28     4     7    1
    29    10     9    1
    30     9     3    2
    31    36    35    1
    32     1    67    1
    33     3     5    1
    34     8     7    1
    35     7     5    1
    36     7    33    1
    37    49    47    1
    38    37    35    1
    39     6     5    1
    40    35    33    1
    41    35    38    1
    42     5    50    1
    43    43    41    1
    44    33    47    1
    45    33    34    1
    46    39    38    1
    47    47    48    1
    48    47    44    1
    49    38    41    1
    50    38    40    1
    51    41    44    1
    52    41    42    1
    53    65    64    1
    54    53    52    1
    55    50    64    1
    56    50    52    1
    57    50    51    1
    58    44    46    1
    59    44    45    1
    60    66    64    1
    61    54    52    1
    62    64    61    1
    63    52    55    1
    64    60    58    1
    65    61    62    1
    66    61    58    1
    67    61    63    1
    68    55    57    1
    69    55    58    1
    70    55    56    1
    71    58    59    1
