@<TRIPOS>MOLECULE
?
 68 72 0 0 0
SMALL
GASTEIGER

@<TRIPOS>ATOM
      1 N           6.3558    2.5372    4.3431 N.2     1  LIG1       -0.2432
      2 N           6.1397    4.7672   11.0908 N.1     1  LIG1       -0.1909
      3 N           2.4049    2.3499   10.9009 N.2     2  LIG2       -0.2432
      4 N           1.7918    4.7660    4.2922 N.1     2  LIG2       -0.1909
      5 O           6.0227    4.5531    5.2829 O.2     1  LIG1       -0.4740
      6 O           2.3183    4.4506   10.1229 O.2     2  LIG2       -0.4740
      7 C           6.3097    3.2286    5.3911 C.2     1  LIG1        0.2180
      8 C           5.8979    4.8161    3.8752 C.3     1  LIG1        0.1138
      9 H           6.5937    5.4201    3.5725 H       1  LIG1        0.0719
     10 H           5.0328    5.2037    3.6711 H       1  LIG1        0.0719
     11 C           6.0477    3.4439    3.2208 C.3     1  LIG1        0.0924
     12 H           6.8152    3.4660    2.6108 H       1  LIG1        0.0582
     13 C           4.8355    2.9760    2.4588 C.3     1  LIG1       -0.0019
     14 H           4.0484    3.1029    3.0115 H       1  LIG1        0.0335
     15 H           4.9228    2.0263    2.2810 H       1  LIG1        0.0335
     16 C           4.6397    3.7034    1.1494 C.ar    1  LIG1       -0.0452
     17 C           3.8862    4.8685    1.0554 C.ar    1  LIG1       -0.0585
     18 H           3.4844    5.2118    1.8217 H       1  LIG1        0.0620
     19 C           3.7208    5.5191   -0.1282 C.ar    1  LIG1       -0.0615
     20 H           3.2106    6.2954   -0.1634 H       1  LIG1        0.0618
     21 C           4.3066    5.0291   -1.2721 C.ar    1  LIG1       -0.0617
     22 H           4.2052    5.4772   -2.0806 H       1  LIG1        0.0618
     23 C           5.0414    3.8745   -1.2052 C.ar    1  LIG1       -0.0615
     24 H           5.4361    3.5358   -1.9758 H       1  LIG1        0.0618
     25 C           5.2013    3.2134   -0.0148 C.ar    1  LIG1       -0.0585
     26 H           5.6943    2.4255    0.0092 H       1  LIG1        0.0620
     27 C           6.5469    2.7595    6.7609 C.ar    1  LIG1        0.0374
     28 C           7.0430    1.4735    6.9826 C.ar    1  LIG1       -0.0494
     29 H           7.2052    0.9043    6.2634 H       1  LIG1        0.0625
     30 C           7.2910    1.0486    8.2790 C.ar    1  LIG1       -0.0598
     31 H           7.6218    0.1920    8.4242 H       1  LIG1        0.0618
     32 C           7.0578    1.8657    9.3378 C.ar    1  LIG1       -0.0443
     33 H           7.2318    1.5666   10.2027 H       1  LIG1        0.0630
     34 C           6.5601    3.1471    9.1356 C.ar    1  LIG1        0.0525
     35 C           6.3214    3.5777    7.8281 C.ar    1  LIG1       -0.0321
     36 H           6.0016    4.4378    7.6813 H       1  LIG1        0.0638
     37 C           6.3277    4.0410   10.2317 C.1     1  LIG1        0.0992
     38 C           2.4587    3.1134    9.9207 C.2     2  LIG2        0.2180
     39 C           2.0928    4.6078   11.5501 C.3     2  LIG2        0.1138
     40 H           1.1966    4.9348   11.7254 H       2  LIG2        0.0719
     41 H           2.7356    5.2223   11.9381 H       2  LIG2        0.0719
     42 C           2.2769    3.2134   12.1000 C.3     2  LIG2        0.0924
     43 H           1.4766    2.9539   12.6009 H       2  LIG2        0.0582
     44 C           3.5000    3.0272   12.9772 C.3     2  LIG2       -0.0019
     45 H           3.6202    2.0787   13.1403 H       2  LIG2        0.0335
     46 H           4.2785    3.3403   12.4899 H       2  LIG2        0.0335
     47 C           3.4501    3.7372   14.3008 C.ar    2  LIG2       -0.0452
     48 C           4.0219    4.9860   14.4870 C.ar    2  LIG2       -0.0585
     49 H           4.4283    5.4132   13.7691 H       2  LIG2        0.0620
     50 C           4.0008    5.5994   15.7021 C.ar    2  LIG2       -0.0615
     51 H           4.3924    6.4362   15.8065 H       2  LIG2        0.0618
     52 C           3.3986    4.9814   16.7735 C.ar    2  LIG2       -0.0617
     53 H           3.3737    5.4004   17.6036 H       2  LIG2        0.0618
     54 C           2.8386    3.7488   16.6101 C.ar    2  LIG2       -0.0615
     55 H           2.4431    3.3217   17.3354 H       2  LIG2        0.0618
     56 C           2.8557    3.1308   15.3790 C.ar    2  LIG2       -0.0585
     57 H           2.4610    2.2952   15.2764 H       2  LIG2        0.0620
     58 C           2.6701    2.7223    8.5231 C.ar    2  LIG2        0.0374
     59 C           3.1670    1.4548    8.2242 C.ar    2  LIG2       -0.0494
     60 H           3.3799    0.8717    8.9174 H       2  LIG2        0.0625
     61 C           3.3456    1.0556    6.9255 C.ar    2  LIG2       -0.0598
     62 H           3.7052    0.2176    6.7412 H       2  LIG2        0.0618
     63 C           2.9930    1.8959    5.8889 C.ar    2  LIG2       -0.0443
     64 H           3.0866    1.6155    5.0058 H       2  LIG2        0.0630
     65 C           2.4969    3.1587    6.1719 C.ar    2  LIG2        0.0525
     66 C           2.3487    3.5696    7.4915 C.ar    2  LIG2       -0.0321
     67 H           2.0312    4.4239    7.6783 H       2  LIG2        0.0638
     68 C           2.1077    4.0526    5.1162 C.1     2  LIG2        0.0992
@<TRIPOS>BOND
     1    22    21    1
     2    24    23    1
     3    21    23   ar
     4    21    19   ar
     5    23    25   ar
     6    20    19    1
     7    19    17   ar
     8    25    26    1
     9    25    16   ar
    10    17    16   ar
    11    17    18    1
    12    16    13    1
    13    15    13    1
    14    13    14    1
    15    13    11    1
    16    12    11    1
    17    11     8    1
    18    11     1    1
    19     9     8    1
    20    10     8    1
    21     8     5    1
    22     4    68    3
    23     1     7    2
    24    64    63    1
    25    68    65    1
    26     5     7    1
    27     7    27    1
    28    63    65   ar
    29    63    61   ar
    30    65    66   ar
    31    29    28    1
    32    62    61    1
    33    27    28   ar
    34    27    35   ar
    35    61    59   ar
    36    28    30   ar
    37    66    67    1
    38    66    58   ar
    39    36    35    1
    40    35    34   ar
    41    59    58   ar
    42    59    60    1
    43    30    31    1
    44    30    32   ar
    45    58    38    1
    46    34    32   ar
    47    34    37    1
    48    32    33    1
    49    38     6    1
    50    38     3    2
    51     6    39    1
    52    37     2    3
    53     3    42    1
    54    39    40    1
    55    39    41    1
    56    39    42    1
    57    42    43    1
    58    42    44    1
    59    46    44    1
    60    44    45    1
    61    44    47    1
    62    49    48    1
    63    47    48   ar
    64    47    56   ar
    65    48    50   ar
    66    57    56    1
    67    56    54   ar
    68    50    51    1
    69    50    52   ar
    70    54    52   ar
    71    54    55    1
    72    52    53    1
