@<TRIPOS>MOLECULE
?
 49 51 0 0 0
SMALL
GASTEIGER

@<TRIPOS>ATOM
      1 O           3.3400    5.5567   19.9050 O.2     1  LIG1       -0.1313
      2 O           4.1846    7.1706   18.7659 O.2     1  LIG1       -0.1313
      3 O           0.9487    6.9177   20.6572 O.3     1  LIG1       -0.3865
      4 H           0.6691    7.4083   21.2526 H       1  LIG1        0.2102
      5 N          -0.1102    5.7914   17.4812 N.3     1  LIG1       -0.2864
      6 N           3.2375    6.4528   19.0882 N.pl3   1  LIG1        0.0302
      7 C           1.1884    5.4439   18.0870 C.3     1  LIG1        0.0659
      8 H           1.0440    4.8942   18.8866 H       1  LIG1        0.0536
      9 C           1.8836    6.7629   18.4820 C.3     1  LIG1        0.1578
     10 H           2.0403    7.2703   17.6586 H       1  LIG1        0.0643
     11 C           1.0999    7.6741   19.4435 C.3     1  LIG1        0.0931
     12 C          -0.2640    7.8885   18.7713 C.3     1  LIG1       -0.0092
     13 H          -0.8387    8.3899   19.3698 H       1  LIG1        0.0306
     14 H          -0.1430    8.4151   17.9661 H       1  LIG1        0.0306
     15 C          -0.9432    6.5776   18.4106 C.3     1  LIG1        0.0028
     16 H          -1.1017    6.0631   19.2171 H       1  LIG1        0.0428
     17 H          -1.8020    6.7619   17.9975 H       1  LIG1        0.0428
     18 C           2.0871    4.7059   17.1147 C.ar    1  LIG1       -0.0280
     19 C           2.7717    3.5581   17.5295 C.ar    1  LIG1       -0.0570
     20 H           2.6388    3.2360   18.3908 H       1  LIG1        0.0621
     21 C           3.6434    2.8926   16.6858 C.ar    1  LIG1       -0.0615
     22 H           4.0953    2.1284   16.9640 H       1  LIG1        0.0618
     23 C           3.8231    3.4222   15.3783 C.ar    1  LIG1       -0.0617
     24 H           4.4216    3.0104   14.7967 H       1  LIG1        0.0618
     25 C           3.1430    4.5126   14.9599 C.ar    1  LIG1       -0.0615
     26 H           3.2566    4.8167   14.0896 H       1  LIG1        0.0618
     27 C           2.2649    5.1952   15.8193 C.ar    1  LIG1       -0.0570
     28 H           1.8130    5.9554   15.5310 H       1  LIG1        0.0621
     29 C           1.7928    8.9940   19.7207 C.3     1  LIG1       -0.0338
     30 H           2.6306    8.8289   20.1606 H       1  LIG1        0.0258
     31 H           1.2365    9.5347   20.2861 H       1  LIG1        0.0258
     32 H           1.9505    9.4531   18.8929 H       1  LIG1        0.0258
     33 C          -0.8313    4.6012   16.9299 C.3     1  LIG1        0.0335
     34 H          -0.1586    4.0716   16.4536 H       1  LIG1        0.0510
     35 C          -1.8487    5.0452   15.8762 C.3     1  LIG1       -0.0453
     36 H          -2.5123    5.6040   16.2883 H       1  LIG1        0.0248
     37 H          -2.2722    4.2730   15.4954 H       1  LIG1        0.0248
     38 H          -1.3996    5.5376   15.1858 H       1  LIG1        0.0248
     39 C          -1.4363    3.6769   17.9701 C.ar    1  LIG1       -0.0305
     40 C          -0.7415    2.5493   18.4171 C.ar    1  LIG1       -0.0571
     41 H           0.0999    2.3650   18.0665 H       1  LIG1        0.0621
     42 C          -1.2805    1.6935   19.3782 C.ar    1  LIG1       -0.0615
     43 H          -0.7919    0.9545   19.6627 H       1  LIG1        0.0618
     44 C          -2.5123    1.9281   19.9043 C.ar    1  LIG1       -0.0617
     45 H          -2.8735    1.3471   20.5351 H       1  LIG1        0.0618
     46 C          -3.2126    3.0285   19.4956 C.ar    1  LIG1       -0.0615
     47 H          -4.0531    3.1997   19.8552 H       1  LIG1        0.0618
     48 C          -2.6837    3.8894   18.5519 C.ar    1  LIG1       -0.0571
     49 H          -3.1778    4.6344   18.2966 H       1  LIG1        0.0621
@<TRIPOS>BOND
     1    26    25    1
     2    24    23    1
     3    25    23   ar
     4    25    27   ar
     5    38    35    1
     6    23    21   ar
     7    37    35    1
     8    28    27    1
     9    27    18   ar
    10    35    36    1
    11    35    33    1
    12    34    33    1
    13    21    22    1
    14    21    19   ar
    15    33     5    1
    16    33    39    1
    17    18    19   ar
    18    18     7    1
    19     5     7    1
    20     5    15    1
    21    19    20    1
    22    10     9    1
    23    14    12    1
    24    39    40   ar
    25    39    48   ar
    26    17    15    1
    27    41    40    1
    28     7     9    1
    29     7     8    1
    30    49    48    1
    31    15    12    1
    32    15    16    1
    33    40    42   ar
    34     9     6    1
    35     9    11    1
    36    48    46   ar
    37     2     6    2
    38    12    13    1
    39    12    11    1
    40    32    29    1
    41     6     1    2
    42    42    43    1
    43    42    44   ar
    44    11    29    1
    45    11     3    1
    46    46    47    1
    47    46    44   ar
    48    29    30    1
    49    29    31    1
    50    44    45    1
    51     3     4    1
