@<TRIPOS>MOLECULE
?
 102 108 0 0 0
SMALL
GASTEIGER

@<TRIPOS>ATOM
      1 O          11.1911    7.8078    8.8189 O.2     1  LIG1       -0.2888
      2 O          12.0829    5.6588    7.0986 O.3     1  LIG1       -0.4195
      3 O          10.2399    4.9256    8.1608 O.2     1  LIG1       -0.2459
      4 O           7.0760    4.5128    4.5614 O.2     1  LIG1       -0.2502
      5 O           8.8970    4.5482    5.8738 O.3     1  LIG1       -0.4456
      6 O          17.2526    1.6336   13.0676 O.2     2  LIG2       -0.2888
      7 O          19.0310   -0.5052   12.2037 O.3     2  LIG2       -0.4195
      8 O          20.1666    1.3985   11.7641 O.2     2  LIG2       -0.2459
      9 O          22.0411    0.8482   13.6568 O.3     2  LIG2       -0.4456
     10 O          23.4403    1.3363   15.3491 O.2     2  LIG2       -0.2502
     11 C          12.1455    7.1179    9.1135 C.2     1  LIG1        0.1989
     12 C          12.6515    5.9739    8.3381 C.2     1  LIG1        0.1735
     13 C          13.7067    5.3903    8.8977 C.2     1  LIG1       -0.0190
     14 C          14.0362    6.0502   10.2203 C.3     1  LIG1        0.0159
     15 H          14.9765    6.3878   10.1940 H       1  LIG1        0.0399
     16 C          13.0606    7.2629   10.2981 C.3     1  LIG1        0.0242
     17 H          12.5440    7.2420   11.1431 H       1  LIG1        0.0355
     18 H          13.5602    8.1162   10.2508 H       1  LIG1        0.0355
     19 C          14.4874    4.2436    8.3684 C.3     1  LIG1       -0.0393
     20 H          14.1038    3.9530    7.5143 H       1  LIG1        0.0276
     21 H          14.4560    3.5029    9.0094 H       1  LIG1        0.0276
     22 H          15.4179    4.5177    8.2321 H       1  LIG1        0.0276
     23 C          13.8769    5.1007   11.4093 C.ar    1  LIG1       -0.0398
     24 C          12.7787    4.2542   11.4998 C.ar    1  LIG1       -0.0580
     25 H          12.1602    4.2141   10.7796 H       1  LIG1        0.0620
     26 C          12.5698    3.4688   12.6211 C.ar    1  LIG1       -0.0615
     27 H          11.7965    2.9204   12.6780 H       1  LIG1        0.0618
     28 C          13.4842    3.4816   13.6572 C.ar    1  LIG1       -0.0617
     29 H          13.3487    2.9393   14.4244 H       1  LIG1        0.0618
     30 C          14.6018    4.2951   13.5629 C.ar    1  LIG1       -0.0615
     31 H          15.2480    4.2920   14.2591 H       1  LIG1        0.0618
     32 C          14.7830    5.1139   12.4595 C.ar    1  LIG1       -0.0580
     33 H          15.5362    5.6908   12.4215 H       1  LIG1        0.0620
     34 C          10.7846    5.2453    7.1586 C.2     1  LIG1        0.3574
     35 C          10.1727    5.2503    5.7852 C.3     1  LIG1        0.2153
     36 C          10.9525    4.5785    4.6564 C.3     1  LIG1       -0.0006
     37 H          10.9570    3.5938    4.7552 H       1  LIG1        0.0310
     38 H          11.8851    4.9064    4.6151 H       1  LIG1        0.0310
     39 C          10.1443    5.0182    3.4162 C.3     1  LIG1       -0.0327
     40 H           9.7577    4.2365    2.9481 H       1  LIG1        0.0277
     41 H          10.7130    5.5242    2.7828 H       1  LIG1        0.0277
     42 C           9.0289    5.9207    4.0072 C.3     1  LIG1        0.0744
     43 C           8.1765    4.9426    4.7847 C.2     1  LIG1        0.3148
     44 C           8.2750    6.7779    3.0132 C.3     1  LIG1       -0.0488
     45 H           7.8248    6.2023    2.3611 H       1  LIG1        0.0240
     46 H           8.9042    7.3684    2.5488 H       1  LIG1        0.0240
     47 H           7.6087    7.3176    3.4874 H       1  LIG1        0.0240
     48 C           9.7531    6.6288    5.1968 C.3     1  LIG1        0.0310
     49 C           8.8079    7.3997    6.1158 C.3     1  LIG1       -0.0546
     50 H           9.2828    7.6519    6.9352 H       1  LIG1        0.0237
     51 H           8.0409    6.8344    6.3443 H       1  LIG1        0.0237
     52 H           8.4934    8.2072    5.6582 H       1  LIG1        0.0237
     53 C          10.9160    7.5326    4.7867 C.3     1  LIG1       -0.0546
     54 H          11.3797    7.8516    5.5881 H       1  LIG1        0.0237
     55 H          10.5724    8.2982    4.2820 H       1  LIG1        0.0237
     56 H          11.5415    7.0270    4.2278 H       1  LIG1        0.0237
     57 C          17.0937    1.0491   12.0157 C.2     2  LIG2        0.1989
     58 C          17.9408   -0.0211   11.4668 C.2     2  LIG2        0.1735
     59 C          17.4676   -0.5276   10.3317 C.2     2  LIG2       -0.0190
     60 C          16.2594    0.2612    9.8526 C.3     2  LIG2        0.0159
     61 H          15.4834   -0.3580    9.7299 H       2  LIG2        0.0399
     62 C          15.9630    1.2380   11.0235 C.3     2  LIG2        0.0242
     63 H          15.9379    2.1726   10.6990 H       2  LIG2        0.0355
     64 H          15.0918    1.0231   11.4432 H       2  LIG2        0.0355
     65 C          17.9849   -1.6925    9.5556 C.3     2  LIG2       -0.0393
     66 H          18.8395   -1.9848    9.9362 H       2  LIG2        0.0276
     67 H          18.1153   -1.4295    8.6208 H       2  LIG2        0.0276
     68 H          17.3390   -2.4278    9.6004 H       2  LIG2        0.0276
     69 C          16.5663    0.9581    8.5330 C.ar    2  LIG2       -0.0398
     70 C          17.6637    1.8114    8.4164 C.ar    2  LIG2       -0.0580
     71 H          18.2325    1.9434    9.1654 H       2  LIG2        0.0620
     72 C          17.9384    2.4682    7.2319 C.ar    2  LIG2       -0.0615
     73 H          18.6924    3.0421    7.1745 H       2  LIG2        0.0618
     74 C          17.1223    2.2943    6.1309 C.ar    2  LIG2       -0.0617
     75 H          17.3052    2.7491    5.3171 H       2  LIG2        0.0618
     76 C          16.0401    1.4510    6.2332 C.ar    2  LIG2       -0.0615
     77 H          15.4760    1.3232    5.4797 H       2  LIG2        0.0618
     78 C          15.7561    0.7834    7.4166 C.ar    2  LIG2       -0.0580
     79 H          15.0047    0.2044    7.4640 H       2  LIG2        0.0620
     80 C          20.0372    0.3959   12.4061 C.2     2  LIG2        0.3574
     81 C          20.9135   -0.0719   13.5349 C.3     2  LIG2        0.2153
     82 C          21.5344   -1.4743   13.4539 C.3     2  LIG2       -0.0006
     83 H          22.2661   -1.5098   12.7877 H       2  LIG2        0.0310
     84 H          20.8553   -2.1596   13.2319 H       2  LIG2        0.0310
     85 C          22.0718   -1.6516   14.9034 C.3     2  LIG2       -0.0327
     86 H          23.0557   -1.7556   14.9069 H       2  LIG2        0.0277
     87 H          21.6630   -2.4408   15.3392 H       2  LIG2        0.0277
     88 C          21.6462   -0.3350   15.6192 C.3     2  LIG2        0.0744
     89 C          22.5007    0.7129   14.9401 C.2     2  LIG2        0.3148
     90 C          20.2795   -0.0121   14.9573 C.3     2  LIG2        0.0310
     91 C          19.1930   -1.0621   15.1877 C.3     2  LIG2       -0.0546
     92 H          18.4013   -0.8353   14.6570 H       2  LIG2        0.0237
     93 H          18.9550   -1.0822   16.1377 H       2  LIG2        0.0237
     94 H          19.5272   -1.9434   14.9161 H       2  LIG2        0.0237
     95 C          19.7591    1.3811   15.3335 C.3     2  LIG2       -0.0546
     96 H          18.9812    1.5996   14.7787 H       2  LIG2        0.0237
     97 H          20.4641    2.0450   15.1845 H       2  LIG2        0.0237
     98 H          19.4989    1.3881   16.2778 H       2  LIG2        0.0237
     99 C          21.7318   -0.3509   17.1301 C.3     2  LIG2       -0.0488
    100 H          22.6337   -0.6191   17.4028 H       2  LIG2        0.0240
    101 H          21.0788   -0.9888   17.4874 H       2  LIG2        0.0240
    102 H          21.5378    0.5446   17.4782 H       2  LIG2        0.0240
@<TRIPOS>BOND
     1    45    44    1
     2    46    44    1
     3    41    39    1
     4    40    39    1
     5    44    47    1
     6    44    42    1
     7    39    42    1
     8    39    36    1
     9    42    43    1
    10    42    48    1
    11    56    53    1
    12    55    53    1
    13     4    43    2
    14    38    36    1
    15    36    37    1
    16    36    35    1
    17    43     5    1
    18    53    48    1
    19    53    54    1
    20    48    35    1
    21    48    49    1
    22    75    74    1
    23    77    76    1
    24    52    49    1
    25    35     5    1
    26    35    34    1
    27    49    51    1
    28    49    50    1
    29    74    76   ar
    30    74    72   ar
    31    76    78   ar
    32     2    34    1
    33     2    12    1
    34    34     3    2
    35    73    72    1
    36    72    70   ar
    37    78    79    1
    38    78    69   ar
    39    20    19    1
    40    22    19    1
    41    12    13    2
    42    12    11    1
    43    19    13    1
    44    19    21    1
    45    70    69   ar
    46    70    71    1
    47    69    60    1
    48    67    65    1
    49     1    11    2
    50    13    14    1
    51    11    16    1
    52    65    68    1
    53    65    66    1
    54    65    59    1
    55    61    60    1
    56    60    59    1
    57    60    62    1
    58    15    14    1
    59    14    16    1
    60    14    23    1
    61    18    16    1
    62    16    17    1
    63    59    58    2
    64    63    62    1
    65    25    24    1
    66    62    64    1
    67    62    57    1
    68    23    24   ar
    69    23    32   ar
    70    58    57    1
    71    58     7    1
    72    24    26   ar
    73     8    80    2
    74    57     6    2
    75     7    80    1
    76    80    81    1
    77    33    32    1
    78    32    30   ar
    79    26    27    1
    80    26    28   ar
    81    83    82    1
    82    84    82    1
    83    82    81    1
    84    82    85    1
    85    81     9    1
    86    81    90    1
    87    30    28   ar
    88    30    31    1
    89     9    89    1
    90    28    29    1
    91    92    91    1
    92    96    95    1
    93    85    86    1
    94    85    87    1
    95    85    88    1
    96    94    91    1
    97    89    10    2
    98    89    88    1
    99    90    91    1
   100    90    95    1
   101    90    88    1
   102    97    95    1
   103    91    93    1
   104    95    98    1
   105    88    99    1
   106    99   100    1
   107    99   102    1
   108    99   101    1
