@<TRIPOS>MOLECULE
?
 62 64 0 0 0
SMALL
GASTEIGER

@<TRIPOS>ATOM
      1 O           2.1692    6.9621    2.4787 O.2     1  LIG1       -0.2447
      2 O           4.1750    5.9946    2.2510 O.3     1  LIG1       -0.4459
      3 O           3.8634    2.6004    3.1859 O.2     1  LIG1       -0.4944
      4 O           0.4950    4.7731    4.3022 O.2     1  LIG1       -0.2867
      5 C           2.8467    5.9725    2.5774 C.2     1  LIG1        0.3473
      6 C           2.4633    4.6181    2.9893 C.2     1  LIG1        0.1470
      7 C           3.5792    3.8659    2.9130 C.2     1  LIG1        0.1590
      8 C           2.8399    1.7628    3.7789 C.3     1  LIG1        0.0786
      9 H           3.2452    0.9728    4.1454 H       1  LIG1        0.0660
     10 H           2.2024    1.5132    3.1063 H       1  LIG1        0.0660
     11 H           2.3954    2.2476    4.4779 H       1  LIG1        0.0660
     12 C           4.7563    4.6797    2.4391 C.3     1  LIG1        0.1775
     13 C           5.8612    4.7387    3.4956 C.3     1  LIG1        0.0013
     14 H           6.2188    3.8455    3.6250 H       1  LIG1        0.0314
     15 H           5.4751    5.0266    4.3366 H       1  LIG1        0.0314
     16 C           7.0126    5.6842    3.1297 C.3     1  LIG1       -0.0189
     17 H           7.8046    5.3678    3.6122 H       1  LIG1        0.0344
     18 C           6.7437    7.1179    3.6087 C.3     1  LIG1       -0.0586
     19 H           7.4948    7.6740    3.3906 H       1  LIG1        0.0235
     20 H           6.6103    7.1180    4.5598 H       1  LIG1        0.0235
     21 H           5.9569    7.4579    3.1753 H       1  LIG1        0.0235
     22 C           7.3409    5.6164    1.6509 C.2     1  LIG1       -0.0732
     23 C           8.5543    6.3838    1.1906 C.3     1  LIG1       -0.0435
     24 H           8.7117    6.2064    0.2602 H       1  LIG1        0.0274
     25 H           9.3194    6.1101    1.7025 H       1  LIG1        0.0274
     26 H           8.4047    7.3237    1.3154 H       1  LIG1        0.0274
     27 C           6.6065    4.9209    0.7864 C.2     1  LIG1       -0.0775
     28 H           6.9035    4.8925   -0.0948 H       1  LIG1        0.0576
     29 C           5.3328    4.1717    1.1057 C.3     1  LIG1        0.0246
     30 H           5.5638    3.2269    1.2223 H       1  LIG1        0.0386
     31 C           4.3407    4.2711   -0.0695 C.3     1  LIG1       -0.0427
     32 H           3.4379    4.2231    0.2827 H       1  LIG1        0.0272
     33 H           4.4455    5.1386   -0.4899 H       1  LIG1        0.0272
     34 C           4.5048    3.1856   -1.1407 C.3     1  LIG1       -0.0521
     35 H           5.4289    3.1866   -1.4359 H       1  LIG1        0.0266
     36 H           3.9571    3.4262   -1.9033 H       1  LIG1        0.0266
     37 C           4.1367    1.7575   -0.7151 C.3     1  LIG1       -0.0504
     38 H           4.8285    1.4338   -0.1172 H       1  LIG1        0.0268
     39 H           4.1506    1.1941   -1.5049 H       1  LIG1        0.0268
     40 C           2.7784    1.5706   -0.0188 C.3     1  LIG1       -0.0434
     41 H           2.8095    2.0927    0.8095 H       1  LIG1        0.0298
     42 C           2.5876    0.1086    0.3840 C.3     1  LIG1       -0.0624
     43 H           3.2901   -0.1524    0.9830 H       1  LIG1        0.0232
     44 H           2.6140   -0.4454   -0.3999 H       1  LIG1        0.0232
     45 H           1.7391    0.0052    0.8207 H       1  LIG1        0.0232
     46 C           1.5745    2.0798   -0.8220 C.3     1  LIG1       -0.0444
     47 H           1.3472    1.4207   -1.4953 H       1  LIG1        0.0273
     48 H           1.8280    2.8949   -1.2817 H       1  LIG1        0.0273
     49 C           0.3250    2.3629    0.0376 C.3     1  LIG1       -0.0248
     50 H           0.0077    1.5210    0.4256 H       1  LIG1        0.0341
     51 C          -0.7949    2.9753   -0.8063 C.3     1  LIG1       -0.0589
     52 H          -1.5878    3.0615   -0.2714 H       1  LIG1        0.0235
     53 H          -0.9770    2.4065   -1.5580 H       1  LIG1        0.0235
     54 H          -0.5236    3.8416   -1.1179 H       1  LIG1        0.0235
     55 C           0.7358    3.2877    1.1485 C.2     1  LIG1       -0.0746
     56 H           1.3558    3.9379    0.9107 H       1  LIG1        0.0578
     57 C           0.3448    3.3177    2.4283 C.2     1  LIG1       -0.0065
     58 C          -0.7516    2.4852    3.0288 C.3     1  LIG1       -0.0363
     59 H          -1.0466    1.8335    2.3883 H       1  LIG1        0.0279
     60 H          -1.4874    3.0524    3.2717 H       1  LIG1        0.0279
     61 H          -0.4219    2.0380    3.8114 H       1  LIG1        0.0279
     62 C           1.0352    4.2787    3.3318 C.2     1  LIG1        0.1989
@<TRIPOS>BOND
     1    36    34    1
     2    53    51    1
     3    39    37    1
     4    47    46    1
     5    35    34    1
     6    48    46    1
     7    34    37    1
     8    34    31    1
     9    54    51    1
    10    46    40    1
    11    46    49    1
    12    51    52    1
    13    51    49    1
    14    37    38    1
    15    37    40    1
    16    33    31    1
    17    44    42    1
    18    28    27    1
    19    31    32    1
    20    31    29    1
    21    40    42    1
    22    40    41    1
    23    49    50    1
    24    49    55    1
    25    24    23    1
    26    42    45    1
    27    42    43    1
    28    27    29    1
    29    27    22    2
    30    56    55    1
    31    29    30    1
    32    29    12    1
    33    55    57    2
    34    23    26    1
    35    23    22    1
    36    23    25    1
    37    22    16    1
    38     2    12    1
    39     2     5    1
    40    59    58    1
    41    57    58    1
    42    57    62    1
    43    12     7    1
    44    12    13    1
    45     1     5    2
    46     5     6    1
    47     7     6    2
    48     7     3    1
    49     6    62    1
    50    58    60    1
    51    58    61    1
    52    10     8    1
    53    16    13    1
    54    16    18    1
    55    16    17    1
    56    21    18    1
    57     3     8    1
    58    62     4    2
    59    19    18    1
    60    13    14    1
    61    13    15    1
    62    18    20    1
    63     8     9    1
    64     8    11    1
