@<TRIPOS>MOLECULE
?
 138 144 0 0 0
SMALL
GASTEIGER

@<TRIPOS>ATOM
      1 O          -2.8774    8.2117    9.9147 O.3     1  LIG1       -0.4914
      2 O          -2.2606    5.7355   10.1690 O.3     1  LIG1       -0.4914
      3 O          -4.6446    8.6037   18.3689 O.3     1  LIG1       -0.4914
      4 O          -4.0288    6.0904   18.5902 O.3     1  LIG1       -0.4914
      5 O           3.4814   10.3984   15.6969 O.3     1  LIG1       -0.4914
      6 O           4.1447    7.9080   15.8091 O.3     1  LIG1       -0.4914
      7 C          -1.6548   10.5864   14.5165 C.3     1  LIG1       -0.0474
      8 H          -1.1355   10.9943   13.7922 H       1  LIG1        0.0245
      9 H          -1.4552   11.0446   15.3591 H       1  LIG1        0.0245
     10 H          -2.6117   10.6685   14.3188 H       1  LIG1        0.0245
     11 C          -1.2881    9.1219   14.6387 C.3     1  LIG1        0.0439
     12 C          -0.6383    6.5635   14.8702 C.3     1  LIG1        0.0439
     13 C          -0.2747    5.0919   15.0119 C.3     1  LIG1       -0.0474
     14 H           0.4037    4.8571   14.3447 H       1  LIG1        0.0245
     15 H          -1.0743    4.5428   14.8731 H       1  LIG1        0.0245
     16 H           0.0809    4.9277   15.9098 H       1  LIG1        0.0245
     17 C          -1.5646    8.2797   13.3744 C.ar    1  LIG1       -0.0248
     18 C          -2.1128    8.7502   12.1914 C.ar    1  LIG1       -0.0117
     19 H          -2.3413    9.6683   12.1051 H       1  LIG1        0.0658
     20 C          -2.3288    7.8745   11.1315 C.ar    1  LIG1        0.1618
     21 C          -1.9940    6.5176   11.2653 C.ar    1  LIG1        0.1618
     22 C          -1.4432    6.0462   12.4523 C.ar    1  LIG1       -0.0117
     23 H          -1.2184    5.1281   12.5486 H       1  LIG1        0.0658
     24 C          -1.2267    6.9440   13.5015 C.ar    1  LIG1       -0.0248
     25 C          -3.1193    9.5995    9.6874 C.3     1  LIG1        0.0790
     26 H          -3.5211    9.7204    8.8030 H       1  LIG1        0.0660
     27 H          -2.2707   10.0894    9.7306 H       1  LIG1        0.0660
     28 H          -3.7285    9.9420   10.3737 H       1  LIG1        0.0660
     29 C          -1.9947    4.3389   10.2870 C.3     1  LIG1        0.0790
     30 H          -2.2131    3.8922    9.4424 H       1  LIG1        0.0660
     31 H          -2.5436    3.9620   11.0056 H       1  LIG1        0.0660
     32 H          -1.0466    4.2030   10.4938 H       1  LIG1        0.0660
     33 C          -2.0462    8.3786   15.7496 C.ar    1  LIG1       -0.0248
     34 C          -3.0089    8.9427   16.5807 C.ar    1  LIG1       -0.0117
     35 H          -3.2177    9.8661   16.5048 H       1  LIG1        0.0658
     36 C          -3.6645    8.1570   17.5220 C.ar    1  LIG1        0.1618
     37 C          -3.3312    6.7825   17.6390 C.ar    1  LIG1        0.1618
     38 C          -2.3432    6.2440   16.8226 C.ar    1  LIG1       -0.0117
     39 H          -2.1054    5.3285   16.9113 H       1  LIG1        0.0658
     40 C          -1.6970    7.0394   15.8723 C.ar    1  LIG1       -0.0248
     41 C          -5.0337    9.9614   18.2135 C.3     1  LIG1        0.0790
     42 H          -5.7374   10.1759   18.8608 H       1  LIG1        0.0660
     43 H          -5.3727   10.1018   17.3049 H       1  LIG1        0.0660
     44 H          -4.2597   10.5423   18.3674 H       1  LIG1        0.0660
     45 C          -3.9441    4.6611   18.5296 C.3     1  LIG1        0.0790
     46 H          -4.4761    4.2709   19.2543 H       1  LIG1        0.0660
     47 H          -3.0087    4.3848   18.6261 H       1  LIG1        0.0660
     48 H          -4.2893    4.3495   17.6671 H       1  LIG1        0.0660
     49 C           0.1999    8.8747   14.9578 C.ar    1  LIG1       -0.0248
     50 C           1.1512    9.8634   15.1525 C.ar    1  LIG1       -0.0117
     51 H           0.9080   10.7789   15.0783 H       1  LIG1        0.0658
     52 C           2.4623    9.5165   15.4556 C.ar    1  LIG1        0.1618
     53 C           2.8194    8.1552   15.5432 C.ar    1  LIG1        0.1618
     54 C           1.8533    7.1630   15.3578 C.ar    1  LIG1       -0.0117
     55 H           2.0898    6.2457   15.4256 H       1  LIG1        0.0658
     56 C           0.5420    7.5320   15.0740 C.ar    1  LIG1       -0.0248
     57 C           3.1303   11.7773   15.9033 C.3     1  LIG1        0.0790
     58 H           3.9427   12.2999   16.0650 H       1  LIG1        0.0660
     59 H           2.5339   11.8497   16.6785 H       1  LIG1        0.0660
     60 H           2.6745   12.1207   15.1078 H       1  LIG1        0.0660
     61 C           4.4984    6.5618   16.1352 C.3     1  LIG1        0.0790
     62 H           5.4622    6.5088   16.3071 H       1  LIG1        0.0660
     63 H           4.2682    5.9730   15.3868 H       1  LIG1        0.0660
     64 H           4.0076    6.2793   16.9353 H       1  LIG1        0.0660
     65 O           8.1675    3.9867   17.6593 O.3     2  LIG2       -0.4914
     66 O           7.3784    1.5316   17.6101 O.3     2  LIG2       -0.4914
     67 O           9.6857    3.9372    9.1430 O.3     2  LIG2       -0.4914
     68 O           9.1211    1.4125    9.1220 O.3     2  LIG2       -0.4914
     69 O           1.6347    5.8926   12.0876 O.3     2  LIG2       -0.4914
     70 O           0.9809    3.3846   12.0005 O.3     2  LIG2       -0.4914
     71 C           6.8095    6.1239   12.9847 C.3     2  LIG2       -0.0474
     72 H           6.3136    6.5662   13.7035 H       2  LIG2        0.0245
     73 H           6.5802    6.5379   12.1273 H       2  LIG2        0.0245
     74 H           7.7723    6.2175   13.1454 H       2  LIG2        0.0245
     75 C           6.4462    4.6611   12.9494 C.3     2  LIG2        0.0439
     76 C           5.7857    2.0904   12.8610 C.3     2  LIG2        0.0439
     77 C           5.4243    0.6224   12.8097 C.3     2  LIG2       -0.0474
     78 H           4.7611    0.4246   13.5039 H       2  LIG2        0.0245
     79 H           6.2277    0.0830   12.9625 H       2  LIG2        0.0245
     80 H           5.0482    0.4096   11.9296 H       2  LIG2        0.0245
     81 C           6.7531    3.8896   14.2445 C.ar    2  LIG2       -0.0248
     82 C           7.3503    4.4131   15.3828 C.ar    2  LIG2       -0.0117
     83 H           7.6066    5.3276   15.4072 H       2  LIG2        0.0658
     84 C           7.5730    3.5991   16.4896 C.ar    2  LIG2        0.1618
     85 C           7.1653    2.2423   16.4560 C.ar    2  LIG2        0.1618
     86 C           6.5946    1.7206   15.3037 C.ar    2  LIG2       -0.0117
     87 H           6.3437    0.8051   15.2667 H       2  LIG2        0.0658
     88 C           6.3929    2.5477   14.2013 C.ar    2  LIG2       -0.0248
     89 C           8.4939    5.3700   17.7811 C.3     2  LIG2        0.0790
     90 H           8.9146    5.5316   18.6520 H       2  LIG2        0.0660
     91 H           7.6767    5.9059   17.7096 H       2  LIG2        0.0660
     92 H           9.1138    5.6234   17.0665 H       2  LIG2        0.0660
     93 C           6.9489    0.1721   17.6185 C.3     2  LIG2        0.0790
     94 H           7.1454   -0.2269   18.4912 H       2  LIG2        0.0660
     95 H           7.4227   -0.3240   16.9187 H       2  LIG2        0.0660
     96 H           5.9841    0.1342   17.4509 H       2  LIG2        0.0660
     97 C           7.1707    3.8525   11.8457 C.ar    2  LIG2       -0.0248
     98 C           8.1023    4.3733   10.9620 C.ar    2  LIG2       -0.0117
     99 H           8.3139    5.2994   10.9835 H       2  LIG2        0.0658
    100 C           8.7268    3.5373   10.0437 C.ar    2  LIG2        0.1618
    101 C           8.4166    2.1602   10.0250 C.ar    2  LIG2        0.1618
    102 C           7.4488    1.6623   10.8992 C.ar    2  LIG2       -0.0117
    103 H           7.2120    0.7424   10.8689 H       2  LIG2        0.0658
    104 C           6.8279    2.5107   11.8161 C.ar    2  LIG2       -0.0248
    105 C          10.1578    5.2685    9.2661 C.3     2  LIG2        0.0790
    106 H          10.8383    5.4389    8.5813 H       2  LIG2        0.0660
    107 H          10.5496    5.3956   10.1556 H       2  LIG2        0.0660
    108 H           9.4105    5.8917    9.1467 H       2  LIG2        0.0660
    109 C           9.1278   -0.0018    9.3297 C.3     2  LIG2        0.0790
    110 H           9.6538   -0.4335    8.6238 H       2  LIG2        0.0660
    111 H           8.2080   -0.3399    9.3056 H       2  LIG2        0.0660
    112 H           9.5267   -0.2022   10.2018 H       2  LIG2        0.0660
    113 C           4.9482    4.3998   12.6848 C.ar    2  LIG2       -0.0248
    114 C           3.9867    5.3824   12.5076 C.ar    2  LIG2       -0.0117
    115 H           4.2290    6.3005   12.5412 H       2  LIG2        0.0658
    116 C           2.6674    5.0160   12.2799 C.ar    2  LIG2        0.1618
    117 C           2.3134    3.6565   12.2265 C.ar    2  LIG2        0.1618
    118 C           3.2912    2.6704   12.4087 C.ar    2  LIG2       -0.0117
    119 H           3.0574    1.7497   12.3767 H       2  LIG2        0.0658
    120 C           4.6042    3.0509   12.6352 C.ar    2  LIG2       -0.0248
    121 C           1.9684    7.2645   11.8244 C.3     2  LIG2        0.0790
    122 H           1.1463    7.7827   11.7004 H       2  LIG2        0.0660
    123 H           2.5134    7.3174   11.0112 H       2  LIG2        0.0660
    124 H           2.4745    7.6282   12.5818 H       2  LIG2        0.0660
    125 C           0.6801    2.0675   11.5336 C.3     2  LIG2        0.0790
    126 H          -0.2874    1.9774   11.4103 H       2  LIG2        0.0660
    127 H           0.9890    1.4089   12.1901 H       2  LIG2        0.0660
    128 H           1.1332    1.9121   10.6786 H       2  LIG2        0.0660
    129 CL          9.4785    8.2133   14.8900 Cl      1  LIG1       -0.1083
    130 CL         10.5724    6.7083   12.6541 Cl      1  LIG1       -0.1083
    131 C          10.9277    7.5223   14.1636 C.3     1  LIG1        0.0970
    132 H          11.5860    8.2426   13.9991 H       1  LIG1        0.0597
    133 H          11.3327    6.8761   14.7955 H       1  LIG1        0.0597
    134 CL         11.0470    3.7535   15.0186 Cl      2  LIG2       -0.1083
    135 CL         10.8952    2.1685   12.5874 Cl      2  LIG2       -0.1083
    136 C           9.9982    3.0774   13.7718 C.3     2  LIG2        0.0970
    137 H           9.3264    2.4868   14.1968 H       2  LIG2        0.0597
    138 H           9.5148    3.8137   13.3191 H       2  LIG2        0.0597
@<TRIPOS>BOND
     1   106   105    1
     2   110   109    1
     3    26    25    1
     4    68   109    1
     5    68   101    1
     6    67   105    1
     7    67   100    1
     8   108   105    1
     9   105   107    1
    10   111   109    1
    11   109   112    1
    12    30    29    1
    13    25    27    1
    14    25     1    1
    15    25    28    1
    16     1    20    1
    17   101   100   ar
    18   101   102   ar
    19   100    98   ar
    20     2    29    1
    21     2    21    1
    22    29    32    1
    23    29    31    1
    24   128   125    1
    25   103   102    1
    26   102   104   ar
    27    98    99    1
    28    98    97   ar
    29   123   121    1
    30    20    21   ar
    31    20    18   ar
    32    21    22   ar
    33   126   125    1
    34   125    70    1
    35   125   127    1
    36   122   121    1
    37   104    97   ar
    38   104    76    1
    39   121    69    1
    40   121   124    1
    41    97    75    1
    42    80    77    1
    43    70   117    1
    44    69   116    1
    45    19    18    1
    46    73    71    1
    47    18    17   ar
    48   117   116   ar
    49   117   118   ar
    50   116   114   ar
    51   119   118    1
    52   118   120   ar
    53    22    23    1
    54    22    24   ar
    55   114   115    1
    56   114   113   ar
    57   135   136    1
    58   120   113   ar
    59   120    76    1
    60   130   131    1
    61   113    75    1
    62    77    76    1
    63    77    79    1
    64    77    78    1
    65    76    88    1
    66    75    71    1
    67    75    81    1
    68    71    74    1
    69    71    72    1
    70   138   136    1
    71    17    24   ar
    72    17    11    1
    73    24    12    1
    74   136   137    1
    75   136   134    1
    76     8     7    1
    77   132   131    1
    78   131   133    1
    79   131   129    1
    80    88    81   ar
    81    88    86   ar
    82    81    82   ar
    83    10     7    1
    84    14    13    1
    85     7    11    1
    86     7     9    1
    87    11    49    1
    88    11    33    1
    89    12    13    1
    90    12    56    1
    91    12    40    1
    92    15    13    1
    93    49    56   ar
    94    49    50   ar
    95    13    16    1
    96    56    54   ar
    97    51    50    1
    98    60    57    1
    99    50    52   ar
   100    87    86    1
   101    86    85   ar
   102    54    55    1
   103    54    53   ar
   104    82    83    1
   105    82    84   ar
   106    63    61    1
   107    52    53   ar
   108    52     5    1
   109    53     6    1
   110     5    57    1
   111    33    40   ar
   112    33    34   ar
   113     6    61    1
   114    40    38   ar
   115    57    58    1
   116    57    59    1
   117    61    62    1
   118    61    64    1
   119    85    84   ar
   120    85    66    1
   121    84    65    1
   122    35    34    1
   123    34    36   ar
   124    38    39    1
   125    38    37   ar
   126    95    93    1
   127    92    89    1
   128    43    41    1
   129    96    93    1
   130    36    37   ar
   131    36     3    1
   132    66    93    1
   133    93    94    1
   134    37     4    1
   135    65    89    1
   136    48    45    1
   137    91    89    1
   138    89    90    1
   139    41    44    1
   140    41     3    1
   141    41    42    1
   142    45     4    1
   143    45    47    1
   144    45    46    1
