@<TRIPOS>MOLECULE
?
 44 46 0 0 0
SMALL
GASTEIGER

@<TRIPOS>ATOM
      1 C           2.7231   12.1780    6.1586 C.3     1  LIG1        0.1357
      2 C           2.0092   10.9392    6.6736 C.ar    1  LIG1        0.0069
      3 C           1.9851    9.7449    5.9635 C.ar    1  LIG1       -0.0124
      4 H           2.4625    9.6787    5.1691 H       1  LIG1        0.0658
      5 C           1.2613    8.6449    6.4170 C.ar    1  LIG1        0.1205
      6 C           0.5467    8.7264    7.6157 C.ar    1  LIG1       -0.0194
      7 H           0.0744    7.9930    7.9373 H       1  LIG1        0.0654
      8 C           0.5552    9.9321    8.3152 C.ar    1  LIG1       -0.0501
      9 H           0.0779    9.9906    9.1114 H       1  LIG1        0.0625
     10 C           1.2507   11.0448    7.8688 C.ar    1  LIG1       -0.0072
     11 C           1.2684   12.3206    8.5841 C.ar    1  LIG1        0.0245
     12 C           0.3952   12.6159    9.6686 C.ar    1  LIG1       -0.0471
     13 H          -0.2571   11.9997    9.9129 H       1  LIG1        0.0626
     14 C           0.5035   13.8051   10.3611 C.ar    1  LIG1       -0.0191
     15 H          -0.0822   13.9884   11.0606 H       1  LIG1        0.0654
     16 C           1.4830   14.7307   10.0183 C.ar    1  LIG1        0.1236
     17 C           2.3322   14.4964    8.9374 C.ar    1  LIG1        0.0224
     18 H           2.9646   15.1279    8.6808 H       1  LIG1        0.0691
     19 C           2.2061   13.2869    8.2502 C.ar    1  LIG1        0.1329
     20 C           1.7281   12.9368    5.2623 C.3     1  LIG1       -0.0115
     21 H           1.5057   12.3728    4.5047 H       1  LIG1        0.0304
     22 H           0.9122   13.0845    5.7649 H       1  LIG1        0.0304
     23 C           2.2217   14.2774    4.7367 C.3     1  LIG1       -0.0613
     24 H           2.9788   14.1374    4.1638 H       1  LIG1        0.0231
     25 H           2.4774   14.8351    5.4732 H       1  LIG1        0.0231
     26 H           1.5198   14.7040    4.2393 H       1  LIG1        0.0231
     27 C           4.0354   11.8775    5.4468 C.3     1  LIG1       -0.0115
     28 H           4.4122   12.7152    5.1339 H       1  LIG1        0.0304
     29 H           3.8442   11.3351    4.6664 H       1  LIG1        0.0304
     30 C           5.0886   11.1607    6.2852 C.3     1  LIG1       -0.0613
     31 H           5.9257   11.1620    5.8159 H       1  LIG1        0.0231
     32 H           4.8102   10.2555    6.4416 H       1  LIG1        0.0231
     33 H           5.1920   11.6139    7.1236 H       1  LIG1        0.0231
     34 C           0.6579    6.3519    6.1569 C.3     1  LIG1        0.0788
     35 H           0.7982    5.6109    5.5646 H       1  LIG1        0.0660
     36 H          -0.2819    6.5327    6.2289 H       1  LIG1        0.0660
     37 H           1.0099    6.1393    7.0234 H       1  LIG1        0.0660
     38 C           2.5206   16.8251   10.5403 C.3     1  LIG1        0.0788
     39 H           2.4101   17.1777    9.6545 H       1  LIG1        0.0660
     40 H           3.3832   16.4100   10.6141 H       1  LIG1        0.0660
     41 H           2.4533   17.5381   11.1801 H       1  LIG1        0.0660
     42 O           3.1247   13.0374    7.2782 O.3     1  LIG1       -0.4804
     43 O           1.3265    7.5079    5.6401 O.3     1  LIG1       -0.4951
     44 O           1.5099   15.8625   10.7952 O.3     1  LIG1       -0.4950
@<TRIPOS>BOND
     1    24    23    1
     2    26    23    1
     3    21    20    1
     4    29    27    1
     5    23    20    1
     6    23    25    1
     7    28    27    1
     8     4     3    1
     9    20    22    1
    10    20     1    1
    11    27     1    1
    12    27    30    1
    13    35    34    1
    14    43    34    1
    15    43     5    1
    16    31    30    1
    17     3     5   ar
    18     3     2   ar
    19    34    36    1
    20    34    37    1
    21     1     2    1
    22     1    42    1
    23    30    32    1
    24    30    33    1
    25     5     6   ar
    26     2    10   ar
    27    42    19    1
    28     6     7    1
    29     6     8   ar
    30    10     8   ar
    31    10    11    1
    32    19    11   ar
    33    19    17   ar
    34     8     9    1
    35    11    12   ar
    36    18    17    1
    37    17    16   ar
    38    39    38    1
    39    12    13    1
    40    12    14   ar
    41    16    14   ar
    42    16    44    1
    43    14    15    1
    44    38    40    1
    45    38    44    1
    46    38    41    1
