@<TRIPOS>MOLECULE
C22 H25 N O2 S
 51 53 0 0 0
SMALL
GASTEIGER

@<TRIPOS>ATOM
      1 S          -1.1324    0.5403   10.7927 S.2     1  LIG1        0.0064
      2 O          -0.2171   -1.4663   12.0773 O.3     1  LIG1       -0.4654
      3 C          -0.1185   -0.6957   10.9915 C.2     1  LIG1        0.2383
      4 N           0.9064   -1.2017   10.2023 N.am    1  LIG1       -0.2247
      5 C           1.4152   -2.4539   10.7382 C.3     1  LIG1        0.0983
      6 H           2.3941   -2.4165   10.7449 H       1  LIG1        0.0595
      7 C           0.9123   -2.4020   12.1870 C.3     1  LIG1        0.1299
      8 C           1.9319   -1.7385   13.0898 C.3     1  LIG1       -0.0230
      9 H           1.5367   -1.5681   13.9476 H       1  LIG1        0.0269
     10 H           2.2158   -0.9094   12.6969 H       1  LIG1        0.0269
     11 H           2.6897   -2.3185   13.1967 H       1  LIG1        0.0269
     12 C           0.3809   -3.6536   12.7836 C.3     1  LIG1       -0.0230
     13 H           0.0129   -3.4640   13.6504 H       1  LIG1        0.0269
     14 H           1.0911   -4.2931   12.8703 H       1  LIG1        0.0269
     15 H          -0.3058   -4.0119   12.2162 H       1  LIG1        0.0269
     16 C           0.9870   -3.6617    9.9468 C.ar    1  LIG1       -0.0228
     17 C          -0.1686   -3.6954    9.1971 C.ar    1  LIG1       -0.0567
     18 H          -0.7118   -2.9435    9.1419 H       1  LIG1        0.0621
     19 C          -0.5174   -4.8522    8.5307 C.ar    1  LIG1       -0.0614
     20 H          -1.2947   -4.8683    8.0207 H       1  LIG1        0.0618
     21 C           0.2596   -5.9689    8.6083 C.ar    1  LIG1       -0.0617
     22 H           0.0109   -6.7433    8.1580 H       1  LIG1        0.0618
     23 C           1.3914   -5.9448    9.3434 C.ar    1  LIG1       -0.0614
     24 H           1.9237   -6.7064    9.4031 H       1  LIG1        0.0618
     25 C           1.7545   -4.8040    9.9997 C.ar    1  LIG1       -0.0567
     26 H           2.5409   -4.7976   10.4961 H       1  LIG1        0.0621
     27 C           1.4470   -0.7214    9.0012 C.2     1  LIG1        0.2235
     28 O           2.2973   -1.3993    8.4935 O.2     1  LIG1       -0.2751
     29 C           0.9538    0.5672    8.4383 C.3     1  LIG1        0.0314
     30 H           1.3406    1.2982    8.9438 H       1  LIG1        0.0364
     31 H          -0.0090    0.6089    8.5487 H       1  LIG1        0.0364
     32 C           1.2880    0.7523    6.9727 C.3     1  LIG1       -0.0078
     33 H           2.2248    0.4965    6.8387 H       1  LIG1        0.0353
     34 C           0.4168   -0.1735    6.1250 C.3     1  LIG1       -0.0486
     35 H          -0.5002    0.1398    6.1599 H       1  LIG1        0.0269
     36 H           0.4390   -1.0636    6.5089 H       1  LIG1        0.0269
     37 C           0.8530   -0.2523    4.6796 C.3     1  LIG1       -0.0647
     38 H           0.2860   -0.8676    4.2079 H       1  LIG1        0.0230
     39 H           1.7617   -0.5575    4.6368 H       1  LIG1        0.0230
     40 H           0.7867    0.6170    4.2777 H       1  LIG1        0.0230
     41 C           1.1291    2.1935    6.5494 C.ar    1  LIG1       -0.0438
     42 C           0.0349    2.9419    6.8972 C.ar    1  LIG1       -0.0583
     43 H          -0.6174    2.5707    7.4455 H       1  LIG1        0.0620
     44 C          -0.1151    4.2320    6.4492 C.ar    1  LIG1       -0.0615
     45 H          -0.8612    4.7221    6.7092 H       1  LIG1        0.0618
     46 C           0.8123    4.8056    5.6297 C.ar    1  LIG1       -0.0617
     47 H           0.6994    5.6765    5.3235 H       1  LIG1        0.0618
     48 C           1.9005    4.0858    5.2672 C.ar    1  LIG1       -0.0615
     49 H           2.5456    4.4570    4.7111 H       1  LIG1        0.0618
     50 C           2.0428    2.7941    5.7344 C.ar    1  LIG1       -0.0583
     51 H           2.7963    2.3104    5.4811 H       1  LIG1        0.0620
@<TRIPOS>BOND
     1    38    37    1
     2    40    37    1
     3    39    37    1
     4    37    34    1
     5    49    48    1
     6    48    46   ar
     7    48    50   ar
     8    47    46    1
     9    51    50    1
    10    46    44   ar
    11    50    41   ar
    12    34    35    1
    13    34    36    1
    14    34    32    1
    15    44    45    1
    16    44    42   ar
    17    41    42   ar
    18    41    32    1
    19    33    32    1
    20    42    43    1
    21    32    29    1
    22    20    19    1
    23    22    21    1
    24    29    31    1
    25    29    30    1
    26    29    27    1
    27    28    27    2
    28    19    21   ar
    29    19    17   ar
    30    21    23   ar
    31    27     4   am
    32    18    17    1
    33    17    16   ar
    34    23    24    1
    35    23    25   ar
    36    16    25   ar
    37    16     5    1
    38    25    26    1
    39     4     5    1
    40     4     3    1
    41     5     6    1
    42     5     7    1
    43     1     3    2
    44     3     2    1
    45     2     7    1
    46     7    12    1
    47     7     8    1
    48    15    12    1
    49    10     8    1
    50    12    14    1
    51    12    13    1
    52     8    11    1
    53     8     9    1
