@<TRIPOS>MOLECULE
?
 48 49 0 0 0
SMALL
GASTEIGER

@<TRIPOS>ATOM
      1 C           3.9457    3.8857    4.7722 C.2     1  LIG1        0.2595
      2 C           5.0592    3.3938    3.8276 C.3     1  LIG1        0.2321
      3 C           5.1747    4.5233    2.8545 C.ar    1  LIG1        0.0197
      4 C           5.9476    4.6761    1.7235 C.ar    1  LIG1       -0.0534
      5 H           6.5764    4.0314    1.4897 H       1  LIG1        0.0622
      6 C           5.7715    5.8048    0.9437 C.ar    1  LIG1       -0.0613
      7 H           6.2918    5.9244    0.1835 H       1  LIG1        0.0618
      8 C           4.8311    6.7544    1.2849 C.ar    1  LIG1       -0.0600
      9 H           4.7249    7.5045    0.7458 H       1  LIG1        0.0618
     10 C           4.0473    6.6127    2.4058 C.ar    1  LIG1       -0.0401
     11 H           3.4099    7.2510    2.6321 H       1  LIG1        0.0636
     12 C           4.2414    5.4896    3.1799 C.ar    1  LIG1        0.0401
     13 C           7.4361    3.7289    6.4617 C.3     1  LIG1        0.0962
     14 C           7.5596    4.9383    7.3613 C.3     1  LIG1       -0.0333
     15 H           7.9046    5.6789    6.8566 H       1  LIG1        0.0258
     16 H           8.1585    4.7387    8.0858 H       1  LIG1        0.0258
     17 H           6.6956    5.1648    7.7129 H       1  LIG1        0.0258
     18 C           8.7511    3.4018    5.7994 C.3     1  LIG1       -0.0333
     19 H           8.6268    2.6786    5.1794 H       1  LIG1        0.0258
     20 H           9.3901    3.1436    6.4679 H       1  LIG1        0.0258
     21 H           9.0738    4.1740    5.3294 H       1  LIG1        0.0258
     22 C           6.8482    2.5369    7.1940 C.3     1  LIG1       -0.0333
     23 H           5.9671    2.7563    7.5077 H       1  LIG1        0.0258
     24 H           7.4059    2.3127    7.9418 H       1  LIG1        0.0258
     25 H           6.7971    1.7876    6.5961 H       1  LIG1        0.0258
     26 C           4.7307    2.0339    3.2081 C.3     1  LIG1        0.1277
     27 H           5.5480    1.6450    2.8590 H       1  LIG1        0.0630
     28 H           4.4015    1.4462    3.9068 H       1  LIG1        0.0630
     29 C           1.5479    2.7816    1.8277 C.3     1  LIG1        0.0961
     30 C           2.0403    3.7693    0.7908 C.3     1  LIG1       -0.0333
     31 H           2.2400    4.6064    1.2154 H       1  LIG1        0.0258
     32 H           1.3597    3.9023    0.1263 H       1  LIG1        0.0258
     33 H           2.8331    3.4255    0.3729 H       1  LIG1        0.0258
     34 C           0.4190    3.3495    2.6745 C.3     1  LIG1       -0.0333
     35 H           0.1931    2.7246    3.3661 H       1  LIG1        0.0258
     36 H          -0.3495    3.5055    2.1211 H       1  LIG1        0.0258
     37 H           0.7010    4.1772    3.0702 H       1  LIG1        0.0258
     38 C           1.1712    1.4502    1.2070 C.3     1  LIG1       -0.0333
     39 H           1.9394    1.0700    0.7735 H       1  LIG1        0.0258
     40 H           0.4743    1.5841    0.5604 H       1  LIG1        0.0258
     41 H           0.8620    0.8530    1.8922 H       1  LIG1        0.0258
     42 N           3.5616    5.1094    4.3438 N.am    1  LIG1       -0.2823
     43 H           2.9229    5.5561    4.6289 H       1  LIG1        0.1549
     44 O           3.4813    3.2592    5.7094 O.2     1  LIG1       -0.2717
     45 O           6.2482    3.0730    4.5490 O.3     1  LIG1       -0.2107
     46 O           6.4891    4.2096    5.4649 O.3     1  LIG1       -0.2276
     47 O           3.7796    2.0836    2.1755 O.3     1  LIG1       -0.2304
     48 O           2.5553    2.5613    2.8413 O.3     1  LIG1       -0.2289
@<TRIPOS>BOND
     1    32    30    1
     2     7     6    1
     3    33    30    1
     4    40    38    1
     5     9     8    1
     6    39    38    1
     7    30    31    1
     8    30    29    1
     9     6     8   ar
    10     6     4   ar
    11    38    29    1
    12    38    41    1
    13     8    10   ar
    14     5     4    1
    15     4     3   ar
    16    29    34    1
    17    29    48    1
    18    36    34    1
    19    47    48    1
    20    47    26    1
    21    10    11    1
    22    10    12   ar
    23    34    37    1
    24    34    35    1
    25     3    12   ar
    26     3     2    1
    27    27    26    1
    28    12    42    1
    29    26     2    1
    30    26    28    1
    31     2    45    1
    32     2     1    1
    33    42    43    1
    34    42     1   am
    35    45    46    1
    36     1    44    2
    37    19    18    1
    38    21    18    1
    39    46    13    1
    40    18    13    1
    41    18    20    1
    42    13    22    1
    43    13    14    1
    44    25    22    1
    45    15    14    1
    46    22    23    1
    47    22    24    1
    48    14    17    1
    49    14    16    1
