@<TRIPOS>MOLECULE
?
 37 40 0 0 0
SMALL
GASTEIGER

@<TRIPOS>ATOM
      1 B           3.4995    4.8114    1.2824 B       1  LIG1        0.0000
      2 F           3.8898    5.5438    0.1757 F       1  LIG1        0.0000
      3 F           4.5397    4.6673    2.1809 F       1  LIG1        0.0000
      4 N           2.3192    5.5952    2.0492 N.pl3   1  LIG1        0.0000
      5 N           1.1429    4.9092    2.0216 N.pl3   1  LIG1        0.0000
      6 N           0.2741    2.8578    1.2219 N.ar    1  LIG1        0.0000
      7 N           0.5251    1.6637    0.6267 N.ar    1  LIG1        0.0000
      8 N           1.9048    0.1335   -0.3478 N.pl3   1  LIG1        0.0000
      9 H           1.2093   -0.3998   -0.4202 H       1  LIG1        0.0000
     10 H           2.6928   -0.1283   -0.6399 H       1  LIG1        0.0000
     11 C           2.1491    6.6725    2.8132 C.2     1  LIG1        0.0000
     12 C           0.8309    6.6741    3.2798 C.2     1  LIG1        0.0000
     13 H           0.4342    7.3289    3.8421 H       1  LIG1        0.0000
     14 C           0.2132    5.5488    2.7727 C.3     1  LIG1        0.0000
     15 C           1.2934    3.6571    1.3604 C.ar    1  LIG1        0.0000
     16 C           2.6294    3.4704    0.9396 C.ar    1  LIG1        0.0000
     17 C           2.8841    2.2661    0.3307 C.ar    1  LIG1        0.0000
     18 C           1.7637    1.3575    0.2130 C.ar    1  LIG1        0.0000
     19 C           4.2391    1.9050   -0.1611 C.ar    1  LIG1        0.0000
     20 C           5.3485    2.1342    0.6649 C.ar    1  LIG1        0.0000
     21 H           5.2197    2.4734    1.5436 H       1  LIG1        0.0000
     22 C           6.6332    1.8690    0.2089 C.ar    1  LIG1        0.0000
     23 H           7.3807    2.0508    0.7666 H       1  LIG1        0.0000
     24 C           6.8299    1.3417   -1.0495 C.ar    1  LIG1        0.0000
     25 H           7.7086    1.1529   -1.3548 H       1  LIG1        0.0000
     26 C           5.7428    1.0907   -1.8647 C.ar    1  LIG1        0.0000
     27 H           5.8783    0.7185   -2.7278 H       1  LIG1        0.0000
     28 C           4.4583    1.3764   -1.4347 C.ar    1  LIG1        0.0000
     29 H           3.7214    1.2111   -2.0103 H       1  LIG1        0.0000
     30 C           3.2591    7.6358    3.0495 C.3     1  LIG1        0.0000
     31 H           4.1019    7.2478    2.7329 H       1  LIG1        0.0000
     32 H           3.3266    7.8270    4.0089 H       1  LIG1        0.0000
     33 H           3.0792    8.4676    2.5623 H       1  LIG1        0.0000
     34 C          -1.1725    5.0318    2.9509 C.3     1  LIG1        0.0000
     35 H          -1.5970    4.9247    2.0736 H       1  LIG1        0.0000
     36 H          -1.6916    5.6660    3.4892 H       1  LIG1        0.0000
     37 H          -1.1410    4.1653    3.4065 H       1  LIG1        0.0000
@<TRIPOS>BOND
     1    27    26    1
     2    29    28    1
     3    26    28   ar
     4    26    24   ar
     5    28    19   ar
     6    25    24    1
     7    24    22   ar
     8    10     8    1
     9     9     8    1
    10     8    18    1
    11    19    17    1
    12    19    20   ar
    13     2     1    1
    14    22    20   ar
    15    22    23    1
    16    18    17   ar
    17    18     7   ar
    18    17    16   ar
    19     7     6   ar
    20    20    21    1
    21    16     1    1
    22    16    15   ar
    23     6    15   ar
    24     1     4    1
    25     1     3    1
    26    15     5    1
    27     5     4    1
    28     5    14    1
    29     4    11    1
    30    35    34    1
    31    33    30    1
    32    31    30    1
    33    14    34    1
    34    14    12    1
    35    11    30    1
    36    11    12    2
    37    34    37    1
    38    34    36    1
    39    30    32    1
    40    12    13    1
