@<TRIPOS>MOLECULE
?
 49 51 0 0 0
SMALL
GASTEIGER

@<TRIPOS>ATOM
      1 C           9.2630    9.5950    4.8017 C.ar    1  LIG1       -0.0525
      2 H           8.3634    9.6327    4.5694 H       1  LIG1        0.0624
      3 C           9.7320   10.3616    5.8528 C.ar    1  LIG1       -0.0611
      4 H           9.1470   10.9076    6.3272 H       1  LIG1        0.0618
      5 C          11.0631   10.3178    6.1969 C.ar    1  LIG1       -0.0617
      6 H          11.3778   10.8376    6.9004 H       1  LIG1        0.0618
      7 C          11.9224    9.5131    5.5050 C.ar    1  LIG1       -0.0611
      8 H          12.8223    9.4903    5.7379 H       1  LIG1        0.0618
      9 C          11.4629    8.7308    4.4586 C.ar    1  LIG1       -0.0525
     10 H          12.0535    8.1775    4.0003 H       1  LIG1        0.0624
     11 C          10.1245    8.7683    4.0894 C.ar    1  LIG1        0.0017
     12 C           9.6150    7.9552    2.9577 C.2     1  LIG1        0.0888
     13 C          10.5299    6.9964    2.2732 C.ar    1  LIG1        0.0049
     14 C          10.4177    5.6166    2.5017 C.ar    1  LIG1       -0.0383
     15 C          11.2998    4.7548    1.8217 C.ar    1  LIG1       -0.0469
     16 C          12.2264    5.2815    0.9475 C.ar    1  LIG1       -0.0586
     17 H          12.8023    4.7060    0.4968 H       1  LIG1        0.0620
     18 C          12.3217    6.6406    0.7228 C.ar    1  LIG1       -0.0609
     19 H          12.9523    6.9760    0.1267 H       1  LIG1        0.0618
     20 C          11.4783    7.4898    1.3873 C.ar    1  LIG1       -0.0523
     21 H          11.5418    8.4067    1.2429 H       1  LIG1        0.0624
     22 N           8.3887    8.1306    2.5934 N.2     1  LIG1       -0.1958
     23 C           7.8719    7.4501    1.5428 C.1     1  LIG1        0.0353
     24 C           7.2845    6.9472    0.6345 C.1     1  LIG1       -0.0742
     25 C           6.6576    6.3304   -0.5418 C.3     1  LIG1        0.0224
     26 H           7.0278    5.4281   -0.6375 H       1  LIG1        0.0434
     27 C           7.0059    7.1083   -1.8050 C.3     1  LIG1       -0.0393
     28 H           6.6492    8.0082   -1.7397 H       1  LIG1        0.0277
     29 H           7.9694    7.1731   -1.8885 H       1  LIG1        0.0277
     30 C           6.4370    6.4283   -3.0313 C.3     1  LIG1       -0.0519
     31 H           6.6380    6.9608   -3.8172 H       1  LIG1        0.0266
     32 H           6.8588    5.5612   -3.1415 H       1  LIG1        0.0266
     33 C           4.9500    6.2463   -2.9205 C.3     1  LIG1       -0.0530
     34 H           4.5212    7.1150   -2.9544 H       1  LIG1        0.0265
     35 H           4.6364    5.7297   -3.6785 H       1  LIG1        0.0265
     36 C           4.5504    5.5511   -1.6564 C.3     1  LIG1       -0.0519
     37 H           4.8363    4.6251   -1.6995 H       1  LIG1        0.0266
     38 H           3.5837    5.5604   -1.5808 H       1  LIG1        0.0266
     39 C           5.1515    6.2008   -0.4207 C.3     1  LIG1       -0.0393
     40 H           4.7620    7.0805   -0.2977 H       1  LIG1        0.0277
     41 H           4.9363    5.6666    0.3600 H       1  LIG1        0.0277
     42 C           9.3799    5.0771    3.4436 C.3     1  LIG1       -0.0388
     43 H           8.6597    4.6917    2.9404 H       1  LIG1        0.0278
     44 H           9.0426    5.7904    3.9902 H       1  LIG1        0.0278
     45 H           9.7744    4.4043    4.0043 H       1  LIG1        0.0278
     46 C          11.2493    3.2617    2.0570 C.3     1  LIG1       -0.0394
     47 H          11.7616    2.8135    1.3797 H       1  LIG1        0.0278
     48 H          10.3381    2.9626    2.0192 H       1  LIG1        0.0278
     49 H          11.6170    3.0612    2.9203 H       1  LIG1        0.0278
@<TRIPOS>BOND
     1    31    30    1
     2    35    33    1
     3    32    30    1
     4    30    33    1
     5    30    27    1
     6    34    33    1
     7    33    36    1
     8    29    27    1
     9    27    28    1
    10    27    25    1
    11    37    36    1
    12    36    38    1
    13    36    39    1
    14    26    25    1
    15    25    39    1
    16    25    24    1
    17    39    40    1
    18    39    41    1
    19    19    18    1
    20    17    16    1
    21    24    23    3
    22    18    16   ar
    23    18    20   ar
    24    16    15   ar
    25    21    20    1
    26    47    46    1
    27    20    13   ar
    28    23    22    1
    29    15    46    1
    30    15    14   ar
    31    48    46    1
    32    46    49    1
    33    13    14   ar
    34    13    12    1
    35    14    42    1
    36    22    12    2
    37    43    42    1
    38    12    11    1
    39    42    44    1
    40    42    45    1
    41    10     9    1
    42    11     9   ar
    43    11     1   ar
    44     9     7   ar
    45     2     1    1
    46     1     3   ar
    47     7     8    1
    48     7     5   ar
    49     3     5   ar
    50     3     4    1
    51     5     6    1
