@<TRIPOS>MOLECULE
?
 46 48 0 0 0
SMALL
GASTEIGER

@<TRIPOS>ATOM
      1 N           9.7885    1.4326    3.0563 N.3     1  LIG1       -0.3012
      2 H           8.9834    1.0894    3.2874 H       1  LIG1        0.1231
      3 C          10.8028    0.6332    2.3725 C.3     1  LIG1        0.0010
      4 H          10.6521    0.7534    1.4057 H       1  LIG1        0.0428
      5 H          10.6527   -0.3054    2.6032 H       1  LIG1        0.0428
      6 C          12.1912    1.0929    2.7629 C.3     1  LIG1       -0.0146
      7 H          12.8654    0.6749    2.1792 H       1  LIG1        0.0326
      8 H          12.3602    0.8058    3.6742 H       1  LIG1        0.0326
      9 C          12.2877    2.5940    2.6502 C.ar    1  LIG1       -0.0372
     10 C          13.5232    3.1935    2.3996 C.ar    1  LIG1       -0.0128
     11 H          14.2877    2.6181    2.2759 H       1  LIG1        0.0658
     12 C          13.6483    4.5660    2.3231 C.ar    1  LIG1        0.1618
     13 O          14.8030    5.2290    2.0653 O.3     1  LIG1       -0.4914
     14 C          12.5035    5.3829    2.4973 C.ar    1  LIG1        0.1618
     15 O          12.7364    6.7226    2.3867 O.3     1  LIG1       -0.4914
     16 C          11.2794    4.7953    2.7334 C.ar    1  LIG1       -0.0107
     17 H          10.4971    5.3555    2.8047 H       1  LIG1        0.0659
     18 C          11.1544    3.3924    2.8225 C.ar    1  LIG1       -0.0141
     19 C           9.8635    2.7566    3.1557 C.3     1  LIG1        0.0936
     20 C           8.7397    3.5090    3.5567 C.2     1  LIG1       -0.0103
     21 H           8.8095    4.4683    3.5626 H       1  LIG1        0.0633
     22 C           7.4942    2.9694    3.8720 C.2     1  LIG1        0.1808
     23 O           7.3158    1.6961    3.9879 O.2     1  LIG1       -0.2879
     24 C           6.3441    3.8953    4.0366 C.2     1  LIG1        0.0090
     25 C           6.5474    5.3963    4.0080 C.3     1  LIG1       -0.0233
     26 H           6.8222    5.6683    3.0866 H       1  LIG1        0.0315
     27 H           7.2581    5.6901    4.6485 H       1  LIG1        0.0315
     28 C           5.1797    5.9762    4.4061 C.3     1  LIG1       -0.0447
     29 H           4.9650    6.7926    3.9196 H       1  LIG1        0.0272
     30 H           5.1728    6.1890    5.3997 H       1  LIG1        0.0272
     31 C           4.1783    4.8520    4.1271 C.3     1  LIG1       -0.0202
     32 H           3.4233    4.8116    4.8345 H       1  LIG1        0.0316
     33 H           3.7368    4.9541    3.2279 H       1  LIG1        0.0316
     34 C           5.0263    3.5992    4.1070 C.2     1  LIG1        0.0432
     35 C           4.2846    2.3041    4.0701 C.2     1  LIG1        0.3331
     36 O           3.0699    2.3261    3.9358 O.2     1  LIG1       -0.2455
     37 C          15.9718    4.4277    1.8311 C.3     1  LIG1        0.0790
     38 H          16.2427    3.9403    2.6478 H       1  LIG1        0.0660
     39 H          16.6744    5.0661    1.5768 H       1  LIG1        0.0660
     40 H          15.7858    3.7978    1.0933 H       1  LIG1        0.0660
     41 O           4.9390    1.1735    4.2025 O.3     1  LIG1       -0.4773
     42 H           6.0195    1.3847    4.1502 H       1  LIG1        0.2954
     43 C          11.6208    7.5993    2.5392 C.3     1  LIG1        0.0790
     44 H          10.9094    7.4137    1.8892 H       1  LIG1        0.0660
     45 H          11.9868    8.4857    2.3875 H       1  LIG1        0.0660
     46 H          11.2409    7.5170    3.4362 H       1  LIG1        0.0660
@<TRIPOS>BOND
     1    40    37    1
     2     4     3    1
     3    39    37    1
     4    37    13    1
     5    37    38    1
     6    44    43    1
     7    13    12    1
     8     7     6    1
     9    11    10    1
    10    12    10   ar
    11    12    14   ar
    12     3     5    1
    13     3     6    1
    14     3     1    1
    15    15    14    1
    16    15    43    1
    17    45    43    1
    18    10     9   ar
    19    14    16   ar
    20    43    46    1
    21     9     6    1
    22     9    18   ar
    23    16    17    1
    24    16    18   ar
    25     6     8    1
    26    18    19    1
    27     1    19    1
    28     1     2    1
    29    26    25    1
    30    19    20    1
    31    33    31    1
    32    20    21    1
    33    20    22    2
    34    22    23    1
    35    22    24    1
    36    29    28    1
    37    36    35    2
    38    25    24    1
    39    25    28    1
    40    25    27    1
    41    24    34    2
    42    35    34    1
    43    35    41    1
    44    34    31    1
    45    31    28    1
    46    31    32    1
    47    42    41    1
    48    28    30    1
