@<TRIPOS>MOLECULE
?
 40 41 0 0 0
SMALL
GASTEIGER

@<TRIPOS>ATOM
      1 BR         -0.2029    2.4173    2.2892 Br      1  LIG1       -0.0503
      2 C           1.6909    2.4518    2.3129 C.ar    1  LIG1        0.0179
      3 C           2.3798    2.5895    1.1218 C.ar    1  LIG1       -0.0475
      4 H           1.9134    2.7064    0.3031 H       1  LIG1        0.0629
      5 C           3.7668    2.5557    1.1471 C.ar    1  LIG1       -0.0559
      6 H           4.2512    2.6778    0.3387 H       1  LIG1        0.0621
      7 C           4.4566    2.3427    2.3279 C.ar    1  LIG1       -0.0277
      8 C           3.7203    2.1999    3.5002 C.ar    1  LIG1       -0.0559
      9 H           4.1792    2.0596    4.3208 H       1  LIG1        0.0621
     10 C           2.3438    2.2518    3.5002 C.ar    1  LIG1       -0.0475
     11 H           1.8564    2.1505    4.3096 H       1  LIG1        0.0629
     12 C           5.9756    2.3401    2.2961 C.3     1  LIG1        0.0632
     13 H           6.2321    2.1661    1.3455 H       1  LIG1        0.0538
     14 C           6.6100    1.2051    3.1176 C.3     1  LIG1       -0.0248
     15 H           6.3025    1.2753    4.0672 H       1  LIG1        0.0315
     16 C           6.1646   -0.1377    2.5431 C.3     1  LIG1       -0.0609
     17 H           6.4180   -0.1870    1.5971 H       1  LIG1        0.0233
     18 H           5.1944   -0.2234    2.6273 H       1  LIG1        0.0233
     19 H           6.6025   -0.8649    3.0352 H       1  LIG1        0.0233
     20 C           8.1350    1.2753    3.0736 C.3     1  LIG1       -0.0609
     21 H           8.4334    1.3194    2.1417 H       1  LIG1        0.0233
     22 H           8.5099    0.4805    3.5021 H       1  LIG1        0.0233
     23 H           8.4364    2.0778    3.5508 H       1  LIG1        0.0233
     24 C           6.2276    4.1582    3.9793 C.3     1  LIG1        0.0500
     25 H           6.4150    3.4492    4.6455 H       1  LIG1        0.0499
     26 H           5.2589    4.3608    4.0139 H       1  LIG1        0.0499
     27 C           7.0043    5.3997    4.3404 C.ar    1  LIG1       -0.0311
     28 C           6.4315    6.6620    4.2123 C.ar    1  LIG1       -0.0573
     29 H           5.5438    6.7503    3.8820 H       1  LIG1        0.0621
     30 C           7.1453    7.7840    4.5650 C.ar    1  LIG1       -0.0615
     31 H           6.7404    8.6411    4.4883 H       1  LIG1        0.0618
     32 C           8.4364    7.6879    5.0253 C.ar    1  LIG1       -0.0617
     33 H           8.9252    8.4723    5.2471 H       1  LIG1        0.0618
     34 C           9.0092    6.4568    5.1629 C.ar    1  LIG1       -0.0615
     35 H           9.8924    6.3763    5.5025 H       1  LIG1        0.0618
     36 C           8.2939    5.3114    4.8017 C.ar    1  LIG1       -0.0573
     37 H           8.7048    4.4595    4.8775 H       1  LIG1        0.0621
     38 N           6.5678    3.6619    2.6422 N.4     1  LIG1       -0.1790
     39 O           5.9631    4.6190    1.7309 O.3     1  LIG1       -0.3114
     40 H           6.5125    4.8127    1.1246 H       1  LIG1        0.2366
@<TRIPOS>BOND
     1     4     3    1
     2     6     5    1
     3     3     5   ar
     4     3     2   ar
     5    40    39    1
     6     5     7   ar
     7    13    12    1
     8    17    16    1
     9    39    38    1
    10    21    20    1
    11     1     2    1
    12    12     7    1
    13    12    38    1
    14    12    14    1
    15     2    10   ar
    16     7     8   ar
    17    16    18    1
    18    16    19    1
    19    16    14    1
    20    38    24    1
    21    20    14    1
    22    20    22    1
    23    20    23    1
    24    14    15    1
    25    10     8   ar
    26    10    11    1
    27     8     9    1
    28    29    28    1
    29    24    26    1
    30    24    27    1
    31    24    25    1
    32    28    27   ar
    33    28    30   ar
    34    27    36   ar
    35    31    30    1
    36    30    32   ar
    37    36    37    1
    38    36    34   ar
    39    32    34   ar
    40    32    33    1
    41    34    35    1
