@<TRIPOS>MOLECULE
?
 44 45 0 0 0
SMALL
GASTEIGER

@<TRIPOS>ATOM
      1 BR         -3.9374    6.1911   12.6187 Br      1  LIG1       -0.0503
      2 O           0.2784    0.6685    6.5030 O.3     1  LIG1       -0.4445
      3 O           0.0937    3.9958    8.2434 O.3     1  LIG1       -0.4445
      4 O           0.5707    3.5444    6.0892 O.2     1  LIG1       -0.2212
      5 O          -3.3365    1.4587    4.5812 O.2     1  LIG1       -0.2656
      6 O          -0.6157    0.4350    4.4360 O.2     1  LIG1       -0.2211
      7 N          -1.2706    2.6217    7.1388 N.ar    1  LIG1       -0.1727
      8 N          -1.4983    1.9106    5.9367 N.ar    1  LIG1       -0.1384
      9 C          -2.7133    3.9968    8.6925 C.ar    1  LIG1        0.0008
     10 C          -2.5234    3.2061    7.4645 C.ar    1  LIG1        0.0833
     11 C          -3.4455    2.8558    6.5705 C.ar    1  LIG1        0.0310
     12 H          -4.3382    3.1134    6.5985 H       1  LIG1        0.0694
     13 C          -2.8578    2.0143    5.5447 C.ar    1  LIG1        0.2778
     14 C          -0.1061    3.4442    7.0590 C.2     1  LIG1        0.4357
     15 C          -2.5847    4.2144   11.0811 C.ar    1  LIG1       -0.0471
     16 H          -2.2767    3.9052   11.9015 H       1  LIG1        0.0629
     17 C          -3.4643    5.1587    8.6417 C.ar    1  LIG1       -0.0515
     18 H          -3.7513    5.4873    7.8202 H       1  LIG1        0.0624
     19 C          -0.5786    0.9259    5.5250 C.2     1  LIG1        0.4382
     20 C          -2.2552    3.5467    9.9236 C.ar    1  LIG1       -0.0515
     21 H          -1.7213    2.7860    9.9672 H       1  LIG1        0.0624
     22 C          -3.7901    5.8338    9.8054 C.ar    1  LIG1       -0.0471
     23 H          -4.2913    6.6172    9.7670 H       1  LIG1        0.0629
     24 C           1.4306   -0.1850    6.1732 C.3     1  LIG1        0.0994
     25 H           1.1531   -0.8660    5.5260 H       1  LIG1        0.0729
     26 C           1.1508    5.0070    8.3419 C.3     1  LIG1        0.0994
     27 H           1.1143    5.5599    7.5340 H       1  LIG1        0.0729
     28 C           1.8233   -0.8460    7.4469 C.3     1  LIG1       -0.0279
     29 H           2.1094   -0.1817    8.0775 H       1  LIG1        0.0265
     30 H           2.5430   -1.4598    7.2799 H       1  LIG1        0.0265
     31 H           1.0715   -1.3242    7.8036 H       1  LIG1        0.0265
     32 C          -3.3681    5.3381   11.0209 C.ar    1  LIG1        0.0179
     33 C           2.4932    0.6685    5.5665 C.3     1  LIG1       -0.0279
     34 H           2.1350    1.1334    4.8062 H       1  LIG1        0.0265
     35 H           3.2270    0.1156    5.2875 H       1  LIG1        0.0265
     36 H           2.8009    1.3064    6.2147 H       1  LIG1        0.0265
     37 C           0.7794    5.8568    9.4911 C.3     1  LIG1       -0.0279
     38 H           0.8979    5.3625   10.3063 H       1  LIG1        0.0265
     39 H          -0.1387    6.1225    9.4092 H       1  LIG1        0.0265
     40 H           1.3383    6.6369    9.5067 H       1  LIG1        0.0265
     41 C           2.4549    4.3658    8.3845 C.3     1  LIG1       -0.0279
     42 H           2.5177    3.8200    9.1717 H       1  LIG1        0.0265
     43 H           3.1402    5.0378    8.4062 H       1  LIG1        0.0265
     44 H           2.5683    3.8177    7.6045 H       1  LIG1        0.0265
@<TRIPOS>BOND
     1     6    19    2
     2     5    13    2
     3    34    33    1
     4    35    33    1
     5    19     8   am
     6    19     2    1
     7    25    24    1
     8    13     8   ar
     9    13    11   ar
    10    33    24    1
    11    33    36    1
    12     8     7   ar
    13     4    14    2
    14    24     2    1
    15    24    28    1
    16    11    12    1
    17    11    10   ar
    18    14     7   am
    19    14     3    1
    20     7    10   ar
    21    30    28    1
    22    28    31    1
    23    28    29    1
    24    10     9    1
    25    27    26    1
    26    44    41    1
    27    18    17    1
    28     3    26    1
    29    26    41    1
    30    26    37    1
    31    41    43    1
    32    41    42    1
    33    17     9   ar
    34    17    22   ar
    35     9    20   ar
    36    39    37    1
    37    37    40    1
    38    37    38    1
    39    23    22    1
    40    22    32   ar
    41    20    21    1
    42    20    15   ar
    43    32    15   ar
    44    32     1    1
    45    15    16    1
