@<TRIPOS>MOLECULE
1504151.cif
 65 67 0 0 0
SMALL
GASTEIGER

@<TRIPOS>ATOM
      1 C          -0.0033    6.7858    0.9050 C.2     1  LIG1        0.2151
      2 C           0.5313    8.0504    1.5227 C.3     1  LIG1        0.0244
      3 H          -0.2175    8.6240    1.7499 H       1  LIG1        0.0358
      4 H           1.0659    8.5164    0.8603 H       1  LIG1        0.0358
      5 C           1.3736    7.8422    2.7647 C.3     1  LIG1       -0.0371
      6 H           1.4412    8.6744    3.2586 H       1  LIG1        0.0274
      7 H           2.2685    7.5668    2.5119 H       1  LIG1        0.0274
      8 C           0.7341    6.7710    3.6441 C.3     1  LIG1        0.0146
      9 H          -0.2070    7.0358    3.7117 H       1  LIG1        0.0352
     10 C           0.7043    5.4211    2.8987 C.3     1  LIG1        0.1650
     11 C           2.0997    4.7775    2.6906 C.3     1  LIG1        0.1051
     12 H           2.6254    5.3702    2.1137 H       1  LIG1        0.0642
     13 C           3.5263    5.7632    4.3653 C.3     1  LIG1        0.0710
     14 H           3.7893    6.2897    3.5943 H       1  LIG1        0.0607
     15 H           4.3350    5.4759    4.8171 H       1  LIG1        0.0607
     16 C           2.7207    6.6231    5.2957 C.2     1  LIG1       -0.0265
     17 C           1.2190    6.6911    5.1043 C.3     1  LIG1       -0.0078
     18 H           0.8398    5.8733    5.4910 H       1  LIG1        0.0351
     19 C           0.6489    7.8721    5.8956 C.3     1  LIG1       -0.0296
     20 H           0.8509    8.6975    5.4259 H       1  LIG1        0.0286
     21 H          -0.3156    7.7867    5.9454 H       1  LIG1        0.0286
     22 C           1.2131    7.9466    7.2907 C.3     1  LIG1        0.0229
     23 H           0.8413    8.7139    7.7541 H       1  LIG1        0.0470
     24 H           0.9701    7.1477    7.7847 H       1  LIG1        0.0470
     25 C           3.3381    7.2586    6.2875 C.2     1  LIG1        0.0041
     26 H           4.2596    7.1639    6.3628 H       1  LIG1        0.0786
     27 C           2.0239    3.4043    2.0192 C.3     1  LIG1       -0.0199
     28 H           1.5843    3.5020    1.1602 H       1  LIG1        0.0294
     29 H           1.4750    2.8210    2.5655 H       1  LIG1        0.0294
     30 C           3.3876    2.7307    1.7984 C.3     1  LIG1       -0.0442
     31 H           3.7795    2.5608    2.6804 H       1  LIG1        0.0296
     32 C           3.1647    1.3789    1.1245 C.3     1  LIG1       -0.0626
     33 H           2.7506    1.5120    0.2693 H       1  LIG1        0.0232
     34 H           2.5942    0.8371    1.6759 H       1  LIG1        0.0232
     35 H           4.0092    0.9371    1.0058 H       1  LIG1        0.0232
     36 C           4.3604    3.5716    1.0262 C.3     1  LIG1       -0.0626
     37 H           5.1910    3.0982    0.9343 H       1  LIG1        0.0232
     38 H           4.5129    4.3968    1.4934 H       1  LIG1        0.0232
     39 H           4.0007    3.7583    0.1557 H       1  LIG1        0.0232
     40 C          -1.4170    4.7387    3.8726 C.3     1  LIG1        0.0391
     41 H          -1.4654    5.3639    4.5988 H       1  LIG1        0.0524
     42 H          -1.8831    3.9331    4.1113 H       1  LIG1        0.0524
     43 H          -1.8216    5.1231    3.0914 H       1  LIG1        0.0524
     44 C           3.3154    8.7987    8.1868 C.2     1  LIG1        0.4072
     45 C           5.5217    9.4672    8.9960 C.3     1  LIG1        0.1068
     46 C           5.3425    8.8680   10.3681 C.3     1  LIG1       -0.0253
     47 H           4.4675    9.0813   10.6974 H       1  LIG1        0.0268
     48 H           6.0052    9.2270   10.9629 H       1  LIG1        0.0268
     49 H           5.4427    7.9148   10.3158 H       1  LIG1        0.0268
     50 C           6.9044    9.1600    8.4318 C.3     1  LIG1       -0.0253
     51 H           7.0265    8.2096    8.3821 H       1  LIG1        0.0268
     52 H           7.5753    9.5402    9.0037 H       1  LIG1        0.0268
     53 H           6.9820    9.5383    7.5524 H       1  LIG1        0.0268
     54 C           5.2661   10.9570    8.9679 C.3     1  LIG1       -0.0253
     55 H           5.2943   11.2694    8.0604 H       1  LIG1        0.0268
     56 H           5.9396   11.4068    9.4823 H       1  LIG1        0.0268
     57 H           4.4017   11.1399    9.3419 H       1  LIG1        0.0268
     58 N           0.1016    5.6323    1.5858 N.am    1  LIG1       -0.2853
     59 H          -0.2245    4.9349    1.2024 H       1  LIG1        0.1515
     60 N           2.6739    8.0650    7.2314 N.am    1  LIG1       -0.2438
     61 O           2.8044    4.6143    3.9221 O.3     1  LIG1       -0.3677
     62 O          -0.0505    4.4331    3.5988 O.3     1  LIG1       -0.3564
     63 O          -0.5308    6.8224   -0.2163 O.2     1  LIG1       -0.2757
     64 O           4.6491    8.7753    8.0254 O.3     1  LIG1       -0.4443
     65 O           2.7229    9.4192    9.0617 O.2     1  LIG1       -0.2259
@<TRIPOS>BOND
     1    63     1    2
     2    39    36    1
     3    33    32    1
     4     4     2    1
     5     1     2    1
     6     1    58   am
     7    37    36    1
     8    35    32    1
     9    36    38    1
    10    36    30    1
    11    32    34    1
    12    32    30    1
    13    28    27    1
    14    59    58    1
    15     2     3    1
    16     2     5    1
    17    58    10    1
    18    30    27    1
    19    30    31    1
    20    27    29    1
    21    27    11    1
    22    12    11    1
    23     7     5    1
    24    11    10    1
    25    11    61    1
    26     5     6    1
    27     5     8    1
    28    10    62    1
    29    10     8    1
    30    43    40    1
    31    14    13    1
    32    62    40    1
    33     8     9    1
    34     8    17    1
    35    40    42    1
    36    40    41    1
    37    61    13    1
    38    13    15    1
    39    13    16    1
    40    17    16    1
    41    17    18    1
    42    17    19    1
    43    16    25    2
    44    20    19    1
    45    19    21    1
    46    19    22    1
    47    25    26    1
    48    25    60    1
    49    60    22    1
    50    60    44   am
    51    22    23    1
    52    22    24    1
    53    53    50    1
    54    64    44    1
    55    64    45    1
    56    55    54    1
    57    44    65    2
    58    51    50    1
    59    50    45    1
    60    50    52    1
    61    54    45    1
    62    54    57    1
    63    54    56    1
    64    45    46    1
    65    49    46    1
    66    46    47    1
    67    46    48    1
