@<TRIPOS>MOLECULE
?
 25 26 0 0 0
SMALL
GASTEIGER

@<TRIPOS>ATOM
      1 O          17.3961    2.8239    1.7087 O.3     1  LIG1       -0.2213
      2 O          16.7620    4.0590    1.2341 O.3     1  LIG1       -0.2274
      3 C          18.5202    3.1906    2.5048 C.3     1  LIG1        0.1736
      4 C          18.2256    4.4501    3.3145 C.3     1  LIG1       -0.0121
      5 H          18.7400    4.4330    4.1599 H       1  LIG1        0.0297
      6 H          18.5004    5.2505    2.8006 H       1  LIG1        0.0297
      7 C          16.7336    4.5207    3.6217 C.3     1  LIG1       -0.0178
      8 H          16.5398    5.3436    4.1373 H       1  LIG1        0.0295
      9 H          16.4731    3.7426    4.1753 H       1  LIG1        0.0295
     10 C          15.9086    4.5249    2.3191 C.3     1  LIG1        0.1046
     11 C          15.5266    5.9359    1.8614 C.3     1  LIG1       -0.0207
     12 H          15.0186    6.3844    2.5821 H       1  LIG1        0.0294
     13 H          16.3521    6.4597    1.7009 H       1  LIG1        0.0294
     14 C          14.6826    5.9243    0.5840 C.3     1  LIG1       -0.0503
     15 H          14.4161    6.8509    0.3580 H       1  LIG1        0.0266
     16 H          15.2236    5.5701   -0.1652 H       1  LIG1        0.0266
     17 C          13.4331    5.0653    0.7556 C.3     1  LIG1       -0.0529
     18 H          12.9320    5.0354   -0.0985 H       1  LIG1        0.0265
     19 H          12.8456    5.4712    1.4413 H       1  LIG1        0.0265
     20 C          13.8027    3.6458    1.1787 C.3     1  LIG1       -0.0503
     21 H          14.2951    3.2027    0.4432 H       1  LIG1        0.0266
     22 H          12.9765    3.1287    1.3470 H       1  LIG1        0.0266
     23 C          14.6670    3.6402    2.4395 C.3     1  LIG1       -0.0207
     24 H          14.9520    2.7114    2.6303 H       1  LIG1        0.0294
     25 H          14.1223    3.9532    3.2048 H       1  LIG1        0.0294
@<TRIPOS>BOND
     1    16    14    1
     2    18    17    1
     3    15    14    1
     4    21    20    1
     5    14    17    1
     6    14    11    1
     7    17    20    1
     8    17    19    1
     9    20    22    1
    10    20    23    1
    11     2     1    1
    12     2    10    1
    13    13    11    1
    14     1     3    1
    15    11    10    1
    16    11    12    1
    17    10    23    1
    18    10     7    1
    19    23    24    1
    20    23    25    1
    21     3     4    1
    22     6     4    1
    23     4     7    1
    24     4     5    1
    25     7     8    1
    26     7     9    1
