@<TRIPOS>MOLECULE
?
 33 34 0 0 0
SMALL
GASTEIGER

@<TRIPOS>ATOM
      1 C           3.8707   10.0991    6.7631 C.ar    1  LIG1        0.1748
      2 C           4.7425   10.7403    5.9435 C.ar    1  LIG1        0.0635
      3 C           4.5616   12.0844    5.5861 C.ar    1  LIG1       -0.0295
      4 H           5.2049   12.5357    5.0521 H       1  LIG1        0.0641
      5 C           3.4383   12.7305    6.0234 C.ar    1  LIG1        0.0283
      6 C           2.4429   12.0868    6.8083 C.ar    1  LIG1        0.0180
      7 C           1.2518   12.6911    7.2527 C.ar    1  LIG1       -0.0500
      8 H           1.0523   13.5912    7.0256 H       1  LIG1        0.0625
      9 C           0.3876   11.9586    8.0155 C.ar    1  LIG1       -0.0430
     10 H          -0.4254   12.3458    8.3179 H       1  LIG1        0.0633
     11 C           0.7024   10.6367    8.3516 C.ar    1  LIG1        0.0284
     12 H           0.0808   10.1533    8.8829 H       1  LIG1        0.0830
     13 N           1.8124   10.0189    7.9756 N.ar    1  LIG1       -0.2512
     14 C           2.6627   10.7329    7.1667 C.ar    1  LIG1        0.1154
     15 BR          6.2605    9.8372    5.2691 Br      1  LIG1       -0.0464
     16 BR          3.2400   14.5681    5.5771 Br      1  LIG1       -0.0496
     17 O           4.0733    8.7701    7.1134 O.3     1  LIG1       -0.3915
     18 C           4.3985    8.5799    8.4377 C.2     1  LIG1        0.5162
     19 O           4.7011    9.4562    9.1854 O.2     1  LIG1       -0.2024
     20 O           4.3331    7.2787    8.6346 O.3     1  LIG1       -0.4278
     21 C           4.7321    6.7155    9.9544 C.3     1  LIG1        0.1086
     22 C           6.1850    7.0435   10.2293 C.3     1  LIG1       -0.0253
     23 H           6.7267    6.8116    9.4461 H       1  LIG1        0.0268
     24 H           6.4953    6.5305   11.0045 H       1  LIG1        0.0268
     25 H           6.2741    8.0028   10.4138 H       1  LIG1        0.0268
     26 C           4.5488    5.2333    9.7149 C.3     1  LIG1       -0.0253
     27 H           3.6128    5.0508    9.4878 H       1  LIG1        0.0268
     28 H           4.7902    4.7400   10.5265 H       1  LIG1        0.0268
     29 H           5.1255    4.9472    8.9752 H       1  LIG1        0.0268
     30 C           3.7874    7.2210   11.0232 C.3     1  LIG1       -0.0253
     31 H           3.9183    8.1853   11.1456 H       1  LIG1        0.0268
     32 H           3.9697    6.7574   11.8667 H       1  LIG1        0.0268
     33 H           2.8623    7.0509   10.7491 H       1  LIG1        0.0268
@<TRIPOS>BOND
     1     4     3    1
     2    15     2    1
     3    16     5    1
     4     3     2   ar
     5     3     5   ar
     6     2     1   ar
     7     5     6   ar
     8     1    17    1
     9     1    14   ar
    10     6    14   ar
    11     6     7   ar
    12     8     7    1
    13    17    18    1
    14    14    13   ar
    15     7     9   ar
    16    13    11   ar
    17     9    10    1
    18     9    11   ar
    19    11    12    1
    20    18    20    1
    21    18    19    2
    22    20    21    1
    23    29    26    1
    24    23    22    1
    25    27    26    1
    26    26    21    1
    27    26    28    1
    28    21    22    1
    29    21    30    1
    30    22    25    1
    31    22    24    1
    32    33    30    1
    33    30    31    1
    34    30    32    1
