@<TRIPOS>MOLECULE
?
 43 44 0 0 0
SMALL
GASTEIGER

@<TRIPOS>ATOM
      1 S           8.0493    1.9944    3.5733 S.3     1  LIG1        0.0319
      2 O           7.6705    1.0708    2.4870 O.3     1  LIG1       -0.1455
      3 N           7.1962    3.4066    3.5577 N.3     1  LIG1       -0.2400
      4 H           7.2787    3.8691    2.8617 H       1  LIG1        0.1371
      5 C           5.7918    3.3922    3.9804 C.3     1  LIG1        0.0506
      6 H           5.6586    2.6145    4.5773 H       1  LIG1        0.0525
      7 C           5.5259    4.6611    4.7870 C.3     1  LIG1        0.0012
      8 H           5.7279    5.4289    4.1957 H       1  LIG1        0.0365
      9 C           6.4400    4.7776    6.0025 C.3     1  LIG1       -0.0264
     10 H           6.3897    3.9502    6.5258 H       1  LIG1        0.0314
     11 H           7.3668    4.8885    5.7023 H       1  LIG1        0.0314
     12 C           6.0634    5.9262    6.8652 C.2     1  LIG1       -0.0834
     13 H           6.7283    6.3854    7.3464 H       1  LIG1        0.0572
     14 C           4.8058    6.3070    6.9620 C.2     1  LIG1       -0.0660
     15 H           4.5751    7.0295    7.5175 H       1  LIG1        0.0614
     16 C           3.7746    5.6110    6.2101 C.2     1  LIG1       -0.0656
     17 H           2.8714    5.7380    6.4346 H       1  LIG1        0.0614
     18 C           4.0947    4.7975    5.2115 C.2     1  LIG1       -0.0788
     19 H           3.4241    4.3079    4.7709 H       1  LIG1        0.0576
     20 C           9.6696    2.7332    3.0735 C.3     1  LIG1        0.0399
     21 C          10.1199    3.6654    4.1817 C.3     1  LIG1       -0.0484
     22 H          11.0302    3.9541    4.0106 H       1  LIG1        0.0244
     23 H          10.0818    3.2001    5.0318 H       1  LIG1        0.0244
     24 H           9.5364    4.4393    4.2098 H       1  LIG1        0.0244
     25 C           9.5269    3.4424    1.7409 C.3     1  LIG1       -0.0484
     26 H           9.0351    2.8767    1.1250 H       1  LIG1        0.0244
     27 H          10.4076    3.6279    1.3775 H       1  LIG1        0.0244
     28 H           9.0470    4.2759    1.8671 H       1  LIG1        0.0244
     29 C          10.6211    1.5559    2.9767 C.3     1  LIG1       -0.0484
     30 H          10.6441    1.0879    3.8268 H       1  LIG1        0.0244
     31 H          11.5095    1.8760    2.7593 H       1  LIG1        0.0244
     32 H          10.3162    0.9504    2.2823 H       1  LIG1        0.0244
     33 C           4.8491    3.2476    2.8000 C.ar    1  LIG1       -0.0290
     34 C           3.9755    2.1929    2.7172 C.ar    1  LIG1       -0.0570
     35 H           3.9544    1.5510    3.4032 H       1  LIG1        0.0621
     36 C           3.1216    2.0643    1.6272 C.ar    1  LIG1       -0.0615
     37 H           2.5341    1.3324    1.5781 H       1  LIG1        0.0618
     38 C           3.1319    2.9987    0.6270 C.ar    1  LIG1       -0.0617
     39 H           2.5477    2.9165   -0.1052 H       1  LIG1        0.0618
     40 C           4.0045    4.0573    0.7028 C.ar    1  LIG1       -0.0615
     41 H           4.0203    4.6965    0.0126 H       1  LIG1        0.0618
     42 C           4.8571    4.1931    1.7787 C.ar    1  LIG1       -0.0570
     43 H           5.4457    4.9255    1.8222 H       1  LIG1        0.0621
@<TRIPOS>BOND
     1    39    38    1
     2    41    40    1
     3    38    40   ar
     4    38    36   ar
     5    40    42   ar
     6    26    25    1
     7    27    25    1
     8    37    36    1
     9    36    34   ar
    10    25    28    1
    11    25    20    1
    12    42    43    1
    13    42    33   ar
    14    32    29    1
    15     2     1    1
    16    34    33   ar
    17    34    35    1
    18    31    29    1
    19    33     5    1
    20     4     3    1
    21    29    20    1
    22    29    30    1
    23    20     1    1
    24    20    21    1
    25     3     1    1
    26     3     5    1
    27     5     6    1
    28     5     7    1
    29    22    21    1
    30    21    24    1
    31    21    23    1
    32     8     7    1
    33    19    18    1
    34     7    18    1
    35     7     9    1
    36    18    16    2
    37    11     9    1
    38     9    10    1
    39     9    12    1
    40    16    17    1
    41    16    14    1
    42    12    14    2
    43    12    13    1
    44    14    15    1
