@<TRIPOS>MOLECULE
BMC-N-163
 44 45 0 0 0
SMALL
GASTEIGER

@<TRIPOS>ATOM
      1 S          -0.3659    2.7795    2.8398 S.O2    1  LIG1        0.0756
      2 O           0.6600    5.0423    4.4229 O.2     1  LIG1       -0.2510
      3 O          -3.5792    4.9414    3.2162 O.3     1  LIG1       -0.3932
      4 H          -4.3242    4.6596    3.4819 H       1  LIG1        0.2095
      5 O           1.0408    2.8622    2.6146 O.2     1  LIG1       -0.1499
      6 O          -1.2128    2.1635    1.8643 O.2     1  LIG1       -0.1499
      7 N          -1.0392    6.4386    3.8742 N.am    1  LIG1       -0.2787
      8 N          -0.9696    4.3024    2.9808 N.am    1  LIG1       -0.1692
      9 H          -1.6842    4.5204    2.5157 H       1  LIG1        0.1781
     10 C          -0.3869    5.2669    3.8179 C.2     1  LIG1        0.3218
     11 C          -0.3861    7.6151    4.4629 C.3     1  LIG1        0.0218
     12 H           0.5874    7.4675    4.5645 H       1  LIG1        0.0470
     13 H          -0.7728    7.8299    5.3480 H       1  LIG1        0.0470
     14 C          -0.6684    8.7319    3.4561 C.3     1  LIG1       -0.0173
     15 C          -2.0961    8.3918    3.0611 C.3     1  LIG1       -0.0255
     16 H          -2.3204    8.7939    2.1853 H       1  LIG1        0.0290
     17 H          -2.7344    8.7309    3.7385 H       1  LIG1        0.0290
     18 C          -2.1577    6.8557    2.9808 C.3     1  LIG1        0.0511
     19 H          -1.9717    6.5586    2.0441 H       1  LIG1        0.0524
     20 C          -3.5057    6.3456    3.4183 C.3     1  LIG1        0.0628
     21 H          -3.6458    6.5534    4.3762 H       1  LIG1        0.0576
     22 H          -4.2176    6.7950    2.8978 H       1  LIG1        0.0576
     23 C           0.2674    8.6203    2.2536 C.3     1  LIG1       -0.0583
     24 H           1.1741    8.8832    2.5194 H       1  LIG1        0.0235
     25 H          -0.0466    9.2115    1.5384 H       1  LIG1        0.0235
     26 H           0.2764    7.6960    1.9315 H       1  LIG1        0.0235
     27 C          -0.5261   10.1038    4.1021 C.3     1  LIG1       -0.0583
     28 H          -1.1390   10.1702    4.8644 H       1  LIG1        0.0235
     29 H          -0.7436   10.7980    3.4460 H       1  LIG1        0.0235
     30 H           0.3958   10.2254    4.4131 H       1  LIG1        0.0235
     31 C          -0.6476    1.9960    4.3910 C.ar    1  LIG1        0.1086
     32 C          -1.9263    1.5694    4.6955 C.ar    1  LIG1       -0.0348
     33 H          -2.6363    1.7047    4.0790 H       1  LIG1        0.0637
     34 C          -2.1629    0.9411    5.9072 C.ar    1  LIG1       -0.0570
     35 H          -3.0413    0.6488    6.1204 H       1  LIG1        0.0621
     36 C          -1.1328    0.7331    6.8135 C.ar    1  LIG1       -0.0503
     37 C           0.1414    1.1610    6.4785 C.ar    1  LIG1       -0.0570
     38 H           0.8559    1.0191    7.0885 H       1  LIG1        0.0621
     39 C           0.3929    1.7919    5.2686 C.ar    1  LIG1       -0.0348
     40 H           1.2710    2.0803    5.0490 H       1  LIG1        0.0637
     41 C          -1.3878    0.0725    8.1479 C.3     1  LIG1       -0.0397
     42 H          -0.6775   -0.5779    8.3306 H       1  LIG1        0.0278
     43 H          -2.2533   -0.3861    8.1248 H       1  LIG1        0.0278
     44 H          -1.3970    0.7538    8.8530 H       1  LIG1        0.0278
@<TRIPOS>BOND
     1    25    23    1
     2     6     1    2
     3    26    23    1
     4    19    18    1
     5    16    15    1
     6    23    24    1
     7    23    14    1
     8     9     8    1
     9     5     1    2
    10     1     8    1
    11     1    31    1
    12    22    20    1
    13     8    10   am
    14    18    15    1
    15    18    20    1
    16    18     7    1
    17    15    14    1
    18    15    17    1
    19     3    20    1
    20     3     4    1
    21    20    21    1
    22    29    27    1
    23    14    27    1
    24    14    11    1
    25    10     7   am
    26    10     2    2
    27     7    11    1
    28    33    32    1
    29    27    30    1
    30    27    28    1
    31    31    32   ar
    32    31    39   ar
    33    11    12    1
    34    11    13    1
    35    32    34   ar
    36    40    39    1
    37    39    37   ar
    38    34    35    1
    39    34    36   ar
    40    37    36   ar
    41    37    38    1
    42    36    41    1
    43    43    41    1
    44    41    42    1
    45    41    44    1
