@<TRIPOS>MOLECULE
?
 56 56 0 0 0
SMALL
GASTEIGER

@<TRIPOS>ATOM
      1 BR          5.9203    7.2362    0.2935 Br      1  LIG1        0.0000
      2 N           4.1614   10.8787    2.0682 N.pl3   2  LIG2       -0.3760
      3 O           6.8561    8.9434    5.5671 O.3     2  LIG2       -0.3356
      4 O           4.4027   10.2921    4.8947 O.2     2  LIG2       -0.4520
      5 O           6.8065   11.2734    5.4502 O.3     2  LIG2       -0.3470
      6 O           4.4895    8.9998    6.8323 O.3     2  LIG2       -0.3388
      7 C           6.0287    8.5144    4.4758 C.3     2  LIG2        0.1140
      8 H           5.4784    7.7465    4.7709 H       2  LIG2        0.0644
      9 H           6.6075    8.2047    3.7343 H       2  LIG2        0.0644
     10 C           5.1267    9.5961    3.9711 C.2     2  LIG2        0.1840
     11 C           5.0040    9.8251    2.6636 C.2     2  LIG2        0.1498
     12 H           5.4965    9.2690    2.0712 H       2  LIG2        0.1349
     13 C           7.0562   10.1174    7.5966 C.3     2  LIG2       -0.0040
     14 H           8.0021    9.8686    7.5291 H       2  LIG2        0.0283
     15 H           6.5862    9.4634    8.1557 H       2  LIG2        0.0283
     16 H           6.9803   11.0061    7.9996 H       2  LIG2        0.0283
     17 C           6.4382   10.1345    6.2125 C.3     2  LIG2        0.2339
     18 C           4.8939   10.2052    6.2581 C.3     2  LIG2        0.2634
     19 C           4.3504   11.4402    6.9418 C.3     2  LIG2        0.0065
     20 H           3.3860   11.5073    6.7776 H       2  LIG2        0.0295
     21 H           4.7984   12.2358    6.5852 H       2  LIG2        0.0295
     22 H           4.5138   11.3786    7.9059 H       2  LIG2        0.0295
     23 C           8.2002   11.4366    5.2353 C.3     2  LIG2        0.0399
     24 H           8.3482   12.1285    4.5584 H       2  LIG2        0.0525
     25 H           8.5837   10.5895    4.9271 H       2  LIG2        0.0525
     26 H           8.6308   11.7030    6.0745 H       2  LIG2        0.0525
     27 C           3.0955    8.7867    6.9962 C.3     2  LIG2        0.0409
     28 H           2.9366    7.8576    7.2632 H       2  LIG2        0.0525
     29 H           2.6354    8.9660    6.1490 H       2  LIG2        0.0525
     30 H           2.7514    9.3889    7.6883 H       2  LIG2        0.0525
     31 C           2.6851   10.7735    2.4499 C.3     2  LIG2        0.1131
     32 H           2.6177   10.7915    3.4372 H       2  LIG2        0.1019
     33 H           2.2181   11.5768    2.1064 H       2  LIG2        0.1019
     34 C           1.9576    9.5569    1.9503 C.2     2  LIG2       -0.0212
     35 C           2.2098    8.2199    2.5859 C.3     2  LIG2       -0.0383
     36 H           1.5121    7.5899    2.3089 H       2  LIG2        0.0276
     37 H           2.1967    8.3146    3.5611 H       2  LIG2        0.0276
     38 H           3.0854    7.8841    2.3029 H       2  LIG2        0.0276
     39 C           1.0526    9.7146    0.9842 C.2     2  LIG2       -0.0940
     40 H           0.5471    8.9685    0.6810 H       2  LIG2        0.0536
     41 H           0.9131   10.5706    0.5994 H       2  LIG2        0.0536
     42 C           4.2674   10.8058    0.5534 C.3     2  LIG2        0.0920
     43 H           4.0489    9.8863    0.2589 H       2  LIG2        0.0968
     44 H           3.6007   11.4190    0.1531 H       2  LIG2        0.0968
     45 C           5.6426   11.1728    0.0443 C.3     2  LIG2        0.0013
     46 H           5.6256   11.1942   -0.9459 H       2  LIG2        0.0324
     47 H           6.2869   10.4734    0.3203 H       2  LIG2        0.0324
     48 C           6.1238   12.5223    0.5601 C.3     2  LIG2       -0.0420
     49 H           7.0569   12.6789    0.2690 H       2  LIG2        0.0269
     50 H           5.5576   13.2445    0.1874 H       2  LIG2        0.0269
     51 C           6.0486   12.5429    2.0772 C.3     2  LIG2        0.0013
     52 H           6.6590   11.8583    2.4499 H       2  LIG2        0.0324
     53 H           6.3366   13.4288    2.4127 H       2  LIG2        0.0324
     54 C           4.6322   12.2629    2.5325 C.3     2  LIG2        0.0920
     55 H           4.0271   12.9554    2.1669 H       2  LIG2        0.0968
     56 H           4.5898   12.3102    3.5208 H       2  LIG2        0.0968
@<TRIPOS>BOND
     1    46    45    1
     2    45    47    1
     3    45    42    1
     4    45    48    1
     5    44    42    1
     6    50    48    1
     7    43    42    1
     8    49    48    1
     9    42     2    1
    10    48    51    1
    11    41    39    1
    12    40    39    1
    13    39    34    2
    14    34    31    1
    15    34    35    1
    16     2    31    1
    17     2    54    1
    18     2    11    1
    19    12    11    1
    20    51    53    1
    21    51    52    1
    22    51    54    1
    23    33    31    1
    24    55    54    1
    25    38    35    1
    26    36    35    1
    27    31    32    1
    28    54    56    1
    29    35    37    1
    30    11    10    2
    31     9     7    1
    32    10     7    1
    33    10     4    1
    34     7     8    1
    35     7     3    1
    36    24    23    1
    37     4    18    1
    38    25    23    1
    39    23     5    1
    40    23    26    1
    41     5    17    1
    42     3    17    1
    43    29    27    1
    44    17    18    1
    45    17    13    1
    46    18     6    1
    47    18    19    1
    48    21    19    1
    49    20    19    1
    50     6    27    1
    51    19    22    1
    52    27    28    1
    53    27    30    1
    54    14    13    1
    55    13    16    1
    56    13    15    1
