@<TRIPOS>MOLECULE
?
 43 46 0 0 0
SMALL
GASTEIGER

@<TRIPOS>ATOM
      1 C           6.1828    2.9763    2.6240 C.2     1  LIG1        0.1810
      2 C           5.3300    2.6753    1.4622 C.ar    1  LIG1        0.0248
      3 C           5.6224    2.7689    0.1093 C.ar    1  LIG1       -0.0482
      4 H           6.4544    3.0693   -0.1779 H       1  LIG1        0.0625
      5 C           4.6527    2.4058   -0.7977 C.ar    1  LIG1       -0.0258
      6 H           4.8145    2.4589   -1.7126 H       1  LIG1        0.0646
      7 C           3.4402    1.9628   -0.3230 C.ar    1  LIG1        0.1238
      8 C           3.1145    1.8529    0.9975 C.ar    1  LIG1       -0.0198
      9 H           2.2811    1.5432    1.2726 H       1  LIG1        0.0650
     10 C           4.0939    2.2275    1.9110 C.ar    1  LIG1       -0.0016
     11 C           3.9656    2.3244    3.4157 C.3     1  LIG1        0.1092
     12 C           5.4647    2.4128    3.8654 C.3     1  LIG1        0.1126
     13 C           6.0695    1.0193    4.0785 C.ar    1  LIG1       -0.0195
     14 C           6.1074   -0.0767    3.2480 C.ar    1  LIG1       -0.0566
     15 H           5.7428   -0.0371    2.3934 H       1  LIG1        0.0621
     16 C           6.7051   -1.2476    3.7158 C.ar    1  LIG1       -0.0614
     17 H           6.7198   -2.0043    3.1753 H       1  LIG1        0.0618
     18 C           7.2689   -1.2934    4.9615 C.ar    1  LIG1       -0.0612
     19 H           7.6703   -2.0798    5.2528 H       1  LIG1        0.0618
     20 C           7.2502   -0.1885    5.7950 C.ar    1  LIG1       -0.0543
     21 H           7.6414   -0.2243    6.6388 H       1  LIG1        0.0624
     22 C           6.6377    0.9733    5.3479 C.ar    1  LIG1       -0.0205
     23 C           6.4639    2.2653    5.9704 C.2     1  LIG1       -0.0537
     24 H           6.7756    2.4819    6.8198 H       1  LIG1        0.0624
     25 C           5.7992    3.1112    5.1754 C.2     1  LIG1       -0.0481
     26 C           3.1736    1.2113    4.0643 C.3     1  LIG1       -0.0303
     27 H           3.2495    1.2782    5.0182 H       1  LIG1        0.0261
     28 H           3.5168    0.3626    3.7748 H       1  LIG1        0.0261
     29 H           2.2503    1.2855    3.8116 H       1  LIG1        0.0261
     30 C           5.4738    4.5387    5.4572 C.3     1  LIG1       -0.0303
     31 H           4.5086    4.6375    5.4598 H       1  LIG1        0.0310
     32 H           5.8194    5.0802    4.7300 H       1  LIG1        0.0310
     33 C           6.0080    5.0847    6.7511 C.3     1  LIG1       -0.0522
     34 H           6.9768    5.0453    6.7324 H       1  LIG1        0.0266
     35 H           5.7028    4.5223    7.4806 H       1  LIG1        0.0266
     36 C           5.5788    6.5084    7.0166 C.3     1  LIG1       -0.0650
     37 H           5.8545    7.0676    6.2862 H       1  LIG1        0.0230
     38 H           5.9869    6.8194    7.8286 H       1  LIG1        0.0230
     39 H           4.6241    6.5442    7.1049 H       1  LIG1        0.0230
     40 F           2.4903    1.6415   -1.2387 F       1  LIG1       -0.2055
     41 O           7.2795    3.5028    2.6010 O.2     1  LIG1       -0.2906
     42 O           3.3521    3.5896    3.7113 O.3     1  LIG1       -0.3826
     43 H           2.5645    3.5709    3.4850 H       1  LIG1        0.2107
@<TRIPOS>BOND
     1     6     5    1
     2    40     7    1
     3     5     7   ar
     4     5     3   ar
     5     7     8   ar
     6     4     3    1
     7     3     2   ar
     8     8     9    1
     9     8    10   ar
    10     2    10   ar
    11     2     1    1
    12    10    11    1
    13    15    14    1
    14    41     1    2
    15     1    12    1
    16    17    16    1
    17    14    16   ar
    18    14    13   ar
    19    11    42    1
    20    11    12    1
    21    11    26    1
    22    43    42    1
    23    16    18   ar
    24    28    26    1
    25    29    26    1
    26    12    13    1
    27    12    25    1
    28    26    27    1
    29    13    22   ar
    30    32    30    1
    31    18    19    1
    32    18    20   ar
    33    25    30    1
    34    25    23    2
    35    22    20   ar
    36    22    23    1
    37    30    31    1
    38    30    33    1
    39    20    21    1
    40    23    24    1
    41    37    36    1
    42    34    33    1
    43    33    36    1
    44    33    35    1
    45    36    39    1
    46    36    38    1
