@<TRIPOS>MOLECULE
?
 37 40 0 0 0
SMALL
GASTEIGER

@<TRIPOS>ATOM
      1 N           0.6471    1.8391    5.5658 N.am    1  LIG1       -0.2679
      2 C           1.8151   -0.2592    5.0324 C.ar    1  LIG1       -0.0186
      3 C           0.7260    0.4103    5.6091 C.ar    1  LIG1        0.0401
      4 C           2.9401    0.5303    4.3955 C.3     1  LIG1        0.0356
      5 H           3.3006    1.1225    5.0884 H       1  LIG1        0.0393
      6 O           3.8736    1.7451    2.6146 O.3     1  LIG1       -0.4576
      7 C           1.8423   -1.6542    5.1153 C.ar    1  LIG1       -0.0564
      8 H           2.5555   -2.1189    4.7413 H       1  LIG1        0.0621
      9 C          -0.2912   -0.3016    6.2351 C.ar    1  LIG1       -0.0400
     10 H          -1.0113    0.1529    6.6096 H       1  LIG1        0.0636
     11 C           1.9434    2.7495    3.6214 C.3     1  LIG1        0.0066
     12 H           1.8491    3.3166    2.8395 H       1  LIG1        0.0322
     13 H           2.5487    3.1917    4.2375 H       1  LIG1        0.0322
     14 C           0.4984    2.6242    6.6758 C.2     1  LIG1        0.2201
     15 C          -0.0046    3.9474    4.7392 C.3     1  LIG1       -0.0255
     16 H           0.3809    4.6774    4.2291 H       1  LIG1        0.0288
     17 H          -0.9679    3.9613    4.6280 H       1  LIG1        0.0288
     18 O           0.4821    2.2303    7.8302 O.2     1  LIG1       -0.2752
     19 C           0.5799    2.5973    4.2906 C.3     1  LIG1        0.0352
     20 H          -0.0426    2.1558    3.6764 H       1  LIG1        0.0506
     21 C           2.5512    1.4263    3.1990 C.3     1  LIG1        0.1197
     22 C           1.7453    0.7193    2.1200 C.3     1  LIG1       -0.0242
     23 H           1.6393    1.3034    1.3659 H       1  LIG1        0.0268
     24 H           0.8812    0.4854    2.4672 H       1  LIG1        0.0268
     25 H           2.2065   -0.0764    1.8459 H       1  LIG1        0.0268
     26 O           5.8516    0.7459    2.3974 O.2     1  LIG1       -0.2508
     27 C           0.3718    4.0550    6.2071 C.3     1  LIG1        0.0262
     28 H           1.2120    4.5283    6.3143 H       1  LIG1        0.0359
     29 H          -0.3163    4.5219    6.7062 H       1  LIG1        0.0359
     30 C           0.8265   -2.3587    5.7438 C.ar    1  LIG1       -0.0614
     31 H           0.8637   -3.2873    5.7867 H       1  LIG1        0.0618
     32 C           4.7439    0.7544    2.8813 C.2     1  LIG1        0.3083
     33 C          -0.2372   -1.6858    6.3041 C.ar    1  LIG1       -0.0600
     34 H          -0.9170   -2.1584    6.7272 H       1  LIG1        0.0618
     35 C           4.1235   -0.2453    3.8149 C.3     1  LIG1        0.0554
     36 H           4.7453   -0.5097    4.5104 H       1  LIG1        0.0385
     37 H           3.8253   -1.0346    3.3363 H       1  LIG1        0.0385
@<TRIPOS>BOND
     1    23    22    1
     2    25    22    1
     3    22    24    1
     4    22    21    1
     5    26    32    2
     6     6    32    1
     7     6    21    1
     8    12    11    1
     9    32    35    1
    10    21    11    1
    11    21     4    1
    12    37    35    1
    13    11    13    1
    14    11    19    1
    15    20    19    1
    16    35     4    1
    17    35    36    1
    18    16    15    1
    19    19    15    1
    20    19     1    1
    21     4     2    1
    22     4     5    1
    23    17    15    1
    24    15    27    1
    25     8     7    1
    26     2     7   ar
    27     2     3   ar
    28     7    30   ar
    29     1     3    1
    30     1    14   am
    31     3     9   ar
    32    30    31    1
    33    30    33   ar
    34    27    28    1
    35    27    14    1
    36    27    29    1
    37     9    33   ar
    38     9    10    1
    39    33    34    1
    40    14    18    2
