@<TRIPOS>MOLECULE
C17 H22 O3
 42 43 0 0 0
SMALL
GASTEIGER

@<TRIPOS>ATOM
      1 O           2.4377    1.4861    6.9809 O.3     1  LIG1       -0.4586
      2 O           4.4867    2.3767    6.7597 O.2     1  LIG1       -0.2512
      3 O          -0.2999    1.7691    7.0611 O.3     1  LIG1       -0.3840
      4 H          -1.1403    1.9538    6.9163 H       1  LIG1        0.2104
      5 C           3.7729    1.4184    6.9418 C.2     1  LIG1        0.3043
      6 C           4.2652    0.0234    7.1381 C.3     1  LIG1        0.0332
      7 H           4.6050   -0.3258    6.2877 H       1  LIG1        0.0342
      8 H           3.5291   -0.5423    7.4532 H       1  LIG1        0.0342
      9 H           4.9856    0.0219    7.8032 H       1  LIG1        0.0342
     10 C           1.8235    2.7963    6.7672 C.3     1  LIG1        0.1324
     11 H           2.3891    3.3216    6.1314 H       1  LIG1        0.0763
     12 C           0.4506    2.5576    6.1316 C.3     1  LIG1        0.1129
     13 C          -0.2062    3.9337    5.9520 C.3     1  LIG1       -0.0196
     14 H           0.3329    4.4706    5.3177 H       1  LIG1        0.0294
     15 H          -1.1070    3.8144    5.5589 H       1  LIG1        0.0294
     16 C          -0.3324    4.6941    7.2687 C.3     1  LIG1       -0.0502
     17 H          -0.7449    5.5782    7.1032 H       1  LIG1        0.0266
     18 H          -0.9203    4.1920    7.8864 H       1  LIG1        0.0266
     19 C           1.0378    4.8813    7.9075 C.3     1  LIG1       -0.0495
     20 H           0.9337    5.3191    8.7886 H       1  LIG1        0.0266
     21 H           1.5900    5.4711    7.3360 H       1  LIG1        0.0266
     22 C           1.7438    3.5408    8.0861 C.3     1  LIG1       -0.0129
     23 H           2.6577    3.6923    8.4352 H       1  LIG1        0.0302
     24 H           1.2494    2.9923    8.7461 H       1  LIG1        0.0302
     25 C           0.5754    1.7342    4.8129 C.3     1  LIG1        0.0343
     26 H           1.0178    0.8716    5.0594 H       1  LIG1        0.0420
     27 C           1.4496    2.3747    3.7455 C.ar    1  LIG1       -0.0377
     28 C           2.7353    1.9083    3.5154 C.ar    1  LIG1       -0.0579
     29 H           3.0840    1.2135    4.0604 H       1  LIG1        0.0620
     30 C           3.5239    2.4404    2.5007 C.ar    1  LIG1       -0.0615
     31 H           4.3996    2.1012    2.3547 H       1  LIG1        0.0618
     32 C           3.0389    3.4589    1.7047 C.ar    1  LIG1       -0.0617
     33 H           3.5756    3.8201    1.0092 H       1  LIG1        0.0618
     34 C           1.7690    3.9473    1.9293 C.ar    1  LIG1       -0.0615
     35 H           1.4344    4.6583    1.3965 H       1  LIG1        0.0618
     36 C           0.9788    3.4052    2.9296 C.ar    1  LIG1       -0.0579
     37 H           0.0995    3.7407    3.0632 H       1  LIG1        0.0620
     38 C          -0.7736    1.3726    4.2395 C.2     1  LIG1       -0.0809
     39 H          -1.3825    2.0805    4.0638 H       1  LIG1        0.0573
     40 C          -1.1632    0.1509    3.9672 C.2     1  LIG1       -0.1020
     41 H          -0.5802   -0.5814    4.1301 H       1  LIG1        0.0532
     42 H          -2.0292   -0.0023    3.6068 H       1  LIG1        0.0532
@<TRIPOS>BOND
     1    33    32    1
     2    35    34    1
     3    32    34   ar
     4    32    30   ar
     5    34    36   ar
     6    31    30    1
     7    30    28   ar
     8    36    37    1
     9    36    27   ar
    10    28    27   ar
    11    28    29    1
    12    42    40    1
    13    27    25    1
    14    40    41    1
    15    40    38    2
    16    39    38    1
    17    38    25    1
    18    25    26    1
    19    25    12    1
    20    14    13    1
    21    15    13    1
    22    13    12    1
    23    13    16    1
    24    11    10    1
    25    12    10    1
    26    12     3    1
    27     7     6    1
    28     2     5    2
    29    10     1    1
    30    10    22    1
    31     4     3    1
    32     5     1    1
    33     5     6    1
    34    17    16    1
    35     6     8    1
    36     6     9    1
    37    16    18    1
    38    16    19    1
    39    21    19    1
    40    19    22    1
    41    19    20    1
    42    22    23    1
    43    22    24    1
