@<TRIPOS>MOLECULE
?
 33 34 0 0 0
SMALL
GASTEIGER

@<TRIPOS>ATOM
      1 O           6.7240    6.5457    1.6856 O.3     1  LIG1       -0.4951
      2 C           1.3272    5.4374    0.3843 C.2     1  LIG1       -0.0104
      3 C           0.2571    5.8642    1.1878 C.2     1  LIG1       -0.0570
      4 C          -1.0433    5.5623    0.7914 C.3     1  LIG1       -0.0048
      5 H          -1.7646    5.8425    1.3415 H       1  LIG1        0.0358
      6 C           0.5391    6.6723    2.4267 C.3     1  LIG1       -0.0298
      7 H          -0.3156    7.0466    2.7579 H       1  LIG1        0.0311
      8 H           1.1202    7.4339    2.1775 H       1  LIG1        0.0311
      9 C           1.2093    5.9056    3.5741 C.3     1  LIG1       -0.0401
     10 H           0.5127    5.3676    4.0286 H       1  LIG1        0.0277
     11 H           1.5416    6.5687    4.2301 H       1  LIG1        0.0277
     12 C           2.3890    4.9559    3.2146 C.3     1  LIG1       -0.0089
     13 C           1.8619    3.5593    2.8217 C.3     1  LIG1       -0.0558
     14 H           1.2785    3.6392    2.0382 H       1  LIG1        0.0238
     15 H           1.3546    3.1798    3.5692 H       1  LIG1        0.0238
     16 H           2.6181    2.9728    2.6083 H       1  LIG1        0.0238
     17 C           3.1925    4.7607    4.5090 C.3     1  LIG1       -0.0558
     18 H           2.6011    4.4200    5.2125 H       1  LIG1        0.0238
     19 H           3.5731    5.6190    4.7898 H       1  LIG1        0.0238
     20 H           3.9153    4.1182    4.3511 H       1  LIG1        0.0238
     21 C           2.7405    5.7256    0.7660 C.ar    1  LIG1       -0.0134
     22 C           3.2529    5.5251    2.0776 C.ar    1  LIG1       -0.0305
     23 C           4.5963    5.8120    2.2984 C.ar    1  LIG1       -0.0157
     24 H           4.9578    5.6694    3.1656 H       1  LIG1        0.0657
     25 C           5.4319    6.2996    1.2969 C.ar    1  LIG1        0.1204
     26 C           4.9386    6.5000    0.0188 C.ar    1  LIG1       -0.0194
     27 H           5.4960    6.8324   -0.6752 H       1  LIG1        0.0654
     28 C           3.6022    6.2000   -0.2174 C.ar    1  LIG1       -0.0503
     29 H           3.2596    6.3256   -1.0947 H       1  LIG1        0.0625
     30 C           7.5841    7.1548    0.7260 C.3     1  LIG1        0.0788
     31 H           8.4643    7.3103    1.1282 H       1  LIG1        0.0660
     32 H           7.2010    8.0097    0.4395 H       1  LIG1        0.0660
     33 H           7.6795    6.5635   -0.0494 H       1  LIG1        0.0660
@<TRIPOS>BOND
     1    29    28    1
     2    27    26    1
     3    28    26   ar
     4    28    21   ar
     5    33    30    1
     6    26    25   ar
     7     2    21    1
     8     2     3    2
     9    32    30    1
    10    30    31    1
    11    30     1    1
    12    21    22   ar
    13     4     3    1
    14     4     5    1
    15     3     6    1
    16    25     1    1
    17    25    23   ar
    18    14    13    1
    19    22    23   ar
    20    22    12    1
    21     8     6    1
    22    23    24    1
    23     6     7    1
    24     6     9    1
    25    16    13    1
    26    13    12    1
    27    13    15    1
    28    12     9    1
    29    12    17    1
    30     9    10    1
    31     9    11    1
    32    20    17    1
    33    17    19    1
    34    17    18    1
