@<TRIPOS>MOLECULE
?
 22 22 0 0 0
SMALL
GASTEIGER

@<TRIPOS>ATOM
      1 CL          0.5387    1.8160    6.4187 Cl      1  LIG1       -0.0835
      2 O          -1.6535   -0.9299   12.0739 O.2     1  LIG1       -0.2920
      3 N          -2.9924    1.6925   15.0010 N.2     1  LIG1        0.1211
      4 N          -3.4570    1.2816   16.0657 N.2     1  LIG1        0.2543
      5 N          -3.9018    1.0464   17.0823 N.2     1  LIG1        0.3543
      6 C          -0.0437    1.3938    8.0049 C.ar    1  LIG1        0.0410
      7 C           0.0437    0.0749    8.4216 C.ar    1  LIG1       -0.0427
      8 H           0.4426   -0.5830    7.8637 H       1  LIG1        0.0632
      9 C          -0.4569   -0.2683    9.6586 C.ar    1  LIG1       -0.0499
     10 H          -0.4155   -1.1724    9.9462 H       1  LIG1        0.0625
     11 C          -1.0231    0.6927   10.4923 C.ar    1  LIG1        0.0175
     12 C          -1.0780    2.0210   10.0546 C.ar    1  LIG1       -0.0499
     13 H          -1.4509    2.6867   10.6206 H       1  LIG1        0.0625
     14 C          -0.5961    2.3734    8.8106 C.ar    1  LIG1       -0.0427
     15 H          -0.6432    3.2742    8.5119 H       1  LIG1        0.0632
     16 C          -1.5849    0.2574   11.8025 C.2     1  LIG1        0.1651
     17 C          -2.0536    1.2862   12.8022 C.3     1  LIG1        0.0367
     18 H          -2.7702    1.8362   12.3969 H       1  LIG1        0.0365
     19 H          -1.3009    1.8868   13.0340 H       1  LIG1        0.0365
     20 C          -2.5750    0.6272   14.0569 C.3     1  LIG1        0.1295
     21 H          -3.3457    0.0451   13.8394 H       1  LIG1        0.0584
     22 H          -1.8673    0.0689   14.4669 H       1  LIG1        0.0584
@<TRIPOS>BOND
     1     1     6    1
     2     8     7    1
     3     6     7   ar
     4     6    14   ar
     5     7     9   ar
     6    15    14    1
     7    14    12   ar
     8     9    10    1
     9     9    11   ar
    10    12    11   ar
    11    12    13    1
    12    11    16    1
    13    16     2    2
    14    16    17    1
    15    18    17    1
    16    17    19    1
    17    17    20    1
    18    21    20    1
    19    20    22    1
    20    20     3    1
    21     3     4    2
    22     4     5    2
