@<TRIPOS>MOLECULE
?
 47 49 0 0 0
SMALL
GASTEIGER

@<TRIPOS>ATOM
      1 C           8.0256    2.2257    1.4134 C.ar    1  LIG1       -0.0617
      2 H           8.6569    2.7640    0.9920 H       1  LIG1        0.0618
      3 C           7.4846    2.6135    2.6118 C.ar    1  LIG1       -0.0615
      4 H           7.7539    3.4112    3.0058 H       1  LIG1        0.0618
      5 C           6.5432    1.8284    3.2321 C.ar    1  LIG1       -0.0579
      6 H           6.1771    2.1053    4.0401 H       1  LIG1        0.0620
      7 C           6.1337    0.6339    2.6727 C.ar    1  LIG1       -0.0375
      8 C           6.7013    0.2486    1.4694 C.ar    1  LIG1       -0.0579
      9 H           6.4510   -0.5563    1.0765 H       1  LIG1        0.0620
     10 C           7.6429    1.0578    0.8428 C.ar    1  LIG1       -0.0615
     11 H           8.0111    0.7965    0.0298 H       1  LIG1        0.0618
     12 C           5.0634   -0.2541    3.3179 C.3     1  LIG1        0.0433
     13 H           5.3232   -1.1800    3.1252 H       1  LIG1        0.0422
     14 C           5.0063   -0.1343    4.8245 C.2     1  LIG1        0.0423
     15 C           3.8873   -0.0006    5.5182 C.2     1  LIG1       -0.0728
     16 H           3.9547    0.0843    6.4418 H       1  LIG1        0.0577
     17 C           2.5283    0.0211    4.9140 C.3     1  LIG1       -0.0250
     18 H           2.2098    0.9368    4.8730 H       1  LIG1        0.0314
     19 H           1.9182   -0.4828    5.4759 H       1  LIG1        0.0314
     20 C           2.5354   -0.5792    3.5056 C.3     1  LIG1        0.0155
     21 H           2.7253   -1.5322    3.6311 H       1  LIG1        0.0374
     22 C           3.6879   -0.0439    2.6516 C.3     1  LIG1        0.1281
     23 H           3.6862   -0.5358    1.8038 H       1  LIG1        0.0610
     24 C           1.1963   -0.5280    2.7821 C.ar    1  LIG1       -0.0418
     25 C           0.2995    0.4943    2.9909 C.ar    1  LIG1       -0.0582
     26 H           0.5247    1.2011    3.5528 H       1  LIG1        0.0620
     27 C          -0.9438    0.4762    2.3644 C.ar    1  LIG1       -0.0615
     28 H          -1.5574    1.1511    2.5447 H       1  LIG1        0.0618
     29 C          -1.2719   -0.5141    1.4942 C.ar    1  LIG1       -0.0617
     30 H          -2.1023   -0.5196    1.0753 H       1  LIG1        0.0618
     31 C          -0.3621   -1.5027    1.2431 C.ar    1  LIG1       -0.0615
     32 H          -0.5701   -2.1776    0.6377 H       1  LIG1        0.0618
     33 C           0.8622   -1.5081    1.8771 C.ar    1  LIG1       -0.0582
     34 H           1.4711   -2.1854    1.6906 H       1  LIG1        0.0620
     35 C           6.3222   -0.3383    5.5132 C.2     1  LIG1        0.3355
     36 C           7.7130    0.3251    7.3157 C.3     1  LIG1        0.0900
     37 H           8.1384   -0.5382    7.1964 H       1  LIG1        0.0695
     38 H           7.6075    0.4828    8.2667 H       1  LIG1        0.0695
     39 C           8.5611    1.3853    6.7252 C.3     1  LIG1       -0.0306
     40 H           8.7201    1.1890    5.7979 H       1  LIG1        0.0262
     41 H           9.3991    1.4214    7.1927 H       1  LIG1        0.0262
     42 H           8.1163    2.2318    6.8011 H       1  LIG1        0.0262
     43 N           3.4537    1.4034    2.3420 N.pl3   1  LIG1        0.0270
     44 O           7.1910   -1.0126    5.0644 O.2     1  LIG1       -0.2453
     45 O           6.4067    0.3215    6.6705 O.3     1  LIG1       -0.4616
     46 O           3.5026    2.2065    3.2458 O.2     1  LIG1       -0.1314
     47 O           3.1978    1.6881    1.1971 O.2     1  LIG1       -0.1314
@<TRIPOS>BOND
     1    11    10    1
     2    32    31    1
     3    10     1   ar
     4    10     8   ar
     5     2     1    1
     6    30    29    1
     7     9     8    1
     8    47    43    2
     9    31    29   ar
    10    31    33   ar
    11     1     3   ar
    12     8     7   ar
    13    29    27   ar
    14    34    33    1
    15    23    22    1
    16    33    24   ar
    17    43    22    1
    18    43    46    2
    19    27    28    1
    20    27    25   ar
    21     3     4    1
    22     3     5   ar
    23    22    12    1
    24    22    20    1
    25     7     5   ar
    26     7    12    1
    27    24    25   ar
    28    24    20    1
    29    25    26    1
    30    13    12    1
    31     5     6    1
    32    12    14    1
    33    20    21    1
    34    20    17    1
    35    14    35    1
    36    14    15    2
    37    18    17    1
    38    17    19    1
    39    17    15    1
    40    44    35    2
    41    35    45    1
    42    15    16    1
    43    40    39    1
    44    45    36    1
    45    39    42    1
    46    39    41    1
    47    39    36    1
    48    37    36    1
    49    36    38    1
