@<TRIPOS>MOLECULE
?
 50 55 0 0 0
SMALL
GASTEIGER

@<TRIPOS>ATOM
      1 C           7.0784    2.6622   -0.5795 C.ar    1  LIG1       -0.0546
      2 H           6.6462    3.3759   -1.0736 H       1  LIG1        0.0622
      3 C           8.4301    2.3800   -0.8137 C.ar    1  LIG1       -0.0614
      4 H           8.9204    2.8423   -1.4850 H       1  LIG1        0.0618
      5 C           9.0722    1.3652   -0.1304 C.ar    1  LIG1       -0.0612
      6 H          10.0414    1.1761   -0.3010 H       1  LIG1        0.0618
      7 C           8.3842    0.5845    0.8054 C.ar    1  LIG1       -0.0538
      8 H           8.8716   -0.1710    1.2823 H       1  LIG1        0.0624
      9 C           7.0428    0.8466    1.0346 C.ar    1  LIG1       -0.0115
     10 C           6.3935    1.8930    0.3423 C.ar    1  LIG1        0.0003
     11 C           4.9174    1.9666    0.7470 C.3     1  LIG1        0.1428
     12 C           4.8421    0.8065    1.7169 C.2     1  LIG1        0.0074
     13 C           6.0262    0.2020    1.8726 C.2     1  LIG1        0.0074
     14 C           5.9472   -0.9646    2.8441 C.3     1  LIG1        0.1428
     15 C           4.4424   -0.9279    3.1750 C.ar    1  LIG1        0.0003
     16 C           3.8092    0.1507    2.5287 C.ar    1  LIG1       -0.0115
     17 C           2.4599    0.4042    2.7194 C.ar    1  LIG1       -0.0538
     18 H           2.0531    1.1761    2.2877 H       1  LIG1        0.0624
     19 C           1.7366   -0.4605    3.5473 C.ar    1  LIG1       -0.0612
     20 H           0.7633   -0.3093    3.7225 H       1  LIG1        0.0618
     21 C           2.3583   -1.5339    4.1724 C.ar    1  LIG1       -0.0614
     22 H           1.8342   -2.1366    4.7760 H       1  LIG1        0.0618
     23 C           3.7255   -1.7670    4.0101 C.ar    1  LIG1       -0.0546
     24 H           4.1762   -2.5156    4.4971 H       1  LIG1        0.0622
     25 O           4.0352    1.7878   -0.3785 O.3     1  LIG1       -0.3750
     26 H           4.2829    1.1326   -0.8529 H       1  LIG1        0.2114
     27 C           4.5097    3.2736    1.4155 C.ar    1  LIG1       -0.0072
     28 C           3.2126    3.7576    1.2920 C.ar    1  LIG1       -0.0552
     29 H           2.5695    3.3095    0.7124 H       1  LIG1        0.0621
     30 C           2.8208    4.9026    1.9706 C.ar    1  LIG1       -0.0614
     31 H           1.8735    5.2272    1.8261 H       1  LIG1        0.0618
     32 C           3.7199    5.5770    2.7817 C.ar    1  LIG1       -0.0617
     33 H           3.4196    6.3598    3.2409 H       1  LIG1        0.0618
     34 C           5.0200    5.1223    2.8922 C.ar    1  LIG1       -0.0614
     35 H           5.7141    5.5975    3.4616 H       1  LIG1        0.0618
     36 C           5.4181    3.9742    2.2130 C.ar    1  LIG1       -0.0552
     37 H           6.3344    3.6373    2.2977 H       1  LIG1        0.0621
     38 O           6.3696   -2.2052    2.2740 O.3     1  LIG1       -0.3750
     39 H           5.7796   -2.4394    1.6455 H       1  LIG1        0.2114
     40 C           6.7639   -0.7661    4.1167 C.ar    1  LIG1       -0.0072
     41 C           7.0145    0.5104    4.6116 C.ar    1  LIG1       -0.0552
     42 H           6.6712    1.3068    4.1138 H       1  LIG1        0.0621
     43 C           7.7139    0.6819    5.8021 C.ar    1  LIG1       -0.0614
     44 H           7.8283    1.5573    6.1406 H       1  LIG1        0.0618
     45 C           8.1790   -0.4167    6.5037 C.ar    1  LIG1       -0.0617
     46 H           8.6952   -0.2614    7.3647 H       1  LIG1        0.0618
     47 C           7.9105   -1.6934    6.0282 C.ar    1  LIG1       -0.0614
     48 H           8.2808   -2.4394    6.5520 H       1  LIG1        0.0618
     49 C           7.2080   -1.8607    4.8427 C.ar    1  LIG1       -0.0552
     50 H           7.0175   -2.8096    4.5142 H       1  LIG1        0.0621
@<TRIPOS>BOND
     1     4     3    1
     2     2     1    1
     3    26    25    1
     4     3     1   ar
     5     3     5   ar
     6     1    10   ar
     7    25    11    1
     8     6     5    1
     9     5     7   ar
    10    10    11    1
    11    10     9   ar
    12    29    28    1
    13    11    27    1
    14    11    12    1
    15     7     9   ar
    16     7     8    1
    17     9    13    1
    18    28    27   ar
    19    28    30   ar
    20    27    36   ar
    21    39    38    1
    22    12    13    2
    23    12    16    1
    24    31    30    1
    25    13    14    1
    26    30    32   ar
    27    36    37    1
    28    36    34   ar
    29    38    14    1
    30    18    17    1
    31    16    17   ar
    32    16    15   ar
    33    17    19   ar
    34    32    34   ar
    35    32    33    1
    36    14    15    1
    37    14    40    1
    38    34    35    1
    39    15    23   ar
    40    19    20    1
    41    19    21   ar
    42    23    21   ar
    43    23    24    1
    44    42    41    1
    45    40    41   ar
    46    40    49   ar
    47    21    22    1
    48    50    49    1
    49    41    43   ar
    50    49    47   ar
    51    43    44    1
    52    43    45   ar
    53    47    45   ar
    54    47    48    1
    55    45    46    1
