@<TRIPOS>MOLECULE
(C50 H67 O8)2, O
 251 262 0 0 0
SMALL
GASTEIGER

@<TRIPOS>ATOM
      1 O           4.3018    8.9941   -4.7202 O.3     1  LIG1       -0.1907
      2 O           4.0670   10.2329   -2.7655 O.3     1  LIG1       -0.3456
      3 O           1.6472    8.4442   -2.2692 O.3     1  LIG1       -0.3506
      4 O           4.1366    7.6614   -1.2745 O.3     1  LIG1       -0.3506
      5 O           2.3658    5.1417   -2.7778 O.2     1  LIG1       -0.2910
      6 O          -0.3726    4.2271   -4.3076 O.3     1  LIG1       -0.4914
      7 O           2.0610    2.2710   -4.5282 O.3     1  LIG1       -0.4914
      8 O           4.5304    2.7176   -2.3366 O.3     1  LIG1       -0.4914
      9 O           8.5265   -9.4474   -3.0086 O.3     2  LIG2       -0.1907
     10 O           7.0803  -11.2011   -2.3407 O.3     2  LIG2       -0.3456
     11 O           5.1271  -10.1306   -4.1789 O.3     2  LIG2       -0.3506
     12 O           5.1221   -9.0937   -1.5829 O.3     2  LIG2       -0.3506
     13 O           4.6687   -6.7489   -4.0155 O.2     2  LIG2       -0.2910
     14 O           4.4918   -4.0660   -2.1936 O.3     2  LIG2       -0.4914
     15 O           4.9041   -3.5634   -5.3861 O.3     2  LIG2       -0.4914
     16 O           4.2689   -6.1514   -7.2039 O.3     2  LIG2       -0.4914
     17 O           2.6348    9.2574    0.6679 O.3     3  HOH3        0.0000
     18 C           3.8223    8.9838   -3.4171 C.3     1  LIG1        0.2617
     19 C           2.3476    8.7182   -3.4947 C.3     1  LIG1        0.1552
     20 C           1.7819    7.3738   -3.2312 C.3     1  LIG1        0.1658
     21 C           2.7260    6.2866   -2.7717 C.2     1  LIG1        0.2024
     22 C           4.1199    6.6401   -2.3325 C.3     1  LIG1        0.1658
     23 C           4.6105    8.0091   -2.5756 C.3     1  LIG1        0.1552
     24 C           3.5542   11.3924   -3.5437 C.3     1  LIG1        0.0400
     25 C           0.4811    6.9218   -3.8562 C.3     1  LIG1        0.0148
     26 C           0.6531    6.2132   -5.2063 C.ar    1  LIG1       -0.0019
     27 C           0.2659    4.8772   -5.3513 C.ar    1  LIG1        0.1272
     28 C           0.5233    4.1865   -6.5380 C.ar    1  LIG1       -0.0008
     29 C           1.0601    4.8785   -7.6063 C.ar    1  LIG1       -0.0511
     30 C           1.3722    6.2188   -7.5307 C.ar    1  LIG1       -0.0412
     31 C           1.2038    6.8455   -6.2888 C.ar    1  LIG1       -0.0513
     32 C          -1.7798    4.3319   -4.3607 C.3     1  LIG1        0.0894
     33 C          -2.3290    3.5243   -3.2006 C.3     1  LIG1       -0.0215
     34 C          -3.7483    3.5240   -3.1557 C.3     1  LIG1       -0.0622
     35 C           1.8011    7.0031   -8.7541 C.3     1  LIG1       -0.0127
     36 C           0.5261    7.4439   -9.4711 C.3     1  LIG1       -0.0560
     37 C           2.6181    8.2590   -8.4110 C.3     1  LIG1       -0.0560
     38 C           2.6508    6.1521   -9.6896 C.3     1  LIG1       -0.0560
     39 C           0.2525    2.6878   -6.6565 C.3     1  LIG1        0.0045
     40 C           1.5511    1.9051   -6.8383 C.ar    1  LIG1       -0.0007
     41 C           2.4004    1.7622   -5.7619 C.ar    1  LIG1        0.1274
     42 C           3.6459    1.1940   -5.9232 C.ar    1  LIG1       -0.0007
     43 C           4.0030    0.7034   -7.1835 C.ar    1  LIG1       -0.0511
     44 C           3.1608    0.8037   -8.2905 C.ar    1  LIG1       -0.0412
     45 C           1.9393    1.4304   -8.0760 C.ar    1  LIG1       -0.0511
     46 C           1.3890    1.3172   -3.6826 C.3     1  LIG1        0.0894
     47 C           1.1087    1.9634   -2.3775 C.3     1  LIG1       -0.0215
     48 C           0.3660    0.9759   -1.4645 C.3     1  LIG1       -0.0622
     49 C           3.5910    0.2757   -9.6528 C.3     1  LIG1       -0.0127
     50 C           3.4059   -1.2256   -9.6610 C.3     1  LIG1       -0.0560
     51 C           5.0467    0.5683   -9.9388 C.3     1  LIG1       -0.0560
     52 C           2.7935    0.8779  -10.7803 C.3     1  LIG1       -0.0560
     53 C           4.6732    1.2410   -4.8142 C.3     1  LIG1        0.0045
     54 C           5.1732    2.6671   -4.6385 C.ar    1  LIG1       -0.0008
     55 C           5.0321    3.3758   -3.4579 C.ar    1  LIG1        0.1272
     56 C           5.3414    4.7218   -3.3783 C.ar    1  LIG1       -0.0019
     57 C           5.8803    5.3486   -4.4935 C.ar    1  LIG1       -0.0513
     58 C           6.0745    4.6627   -5.6904 C.ar    1  LIG1       -0.0412
     59 C           5.6957    3.3384   -5.7353 C.ar    1  LIG1       -0.0511
     60 C           5.5608    2.1498   -1.5155 C.3     1  LIG1        0.0894
     61 C           4.9857    1.5490   -0.3105 C.3     1  LIG1       -0.0215
     62 C           4.1204    0.5248   -0.4841 C.3     1  LIG1       -0.0622
     63 C           6.6519    5.3852   -6.9077 C.3     1  LIG1       -0.0127
     64 C           6.4919    4.6266   -8.1720 C.3     1  LIG1       -0.0560
     65 C           8.1087    5.6829   -6.6524 C.3     1  LIG1       -0.0560
     66 C           6.0324    6.7565   -7.0670 C.3     1  LIG1       -0.0560
     67 C           5.0663    5.5203   -2.1099 C.3     1  LIG1        0.0148
     68 C           7.2069   -9.8631   -2.8003 C.3     2  LIG2        0.2617
     69 C           6.5249   -9.8647   -4.1544 C.3     2  LIG2        0.1552
     70 C           5.5998   -8.8194   -4.6017 C.3     2  LIG2        0.1658
     71 C           5.2280   -7.7225   -3.6316 C.2     2  LIG2        0.2024
     72 C           5.6195   -7.8632   -2.1732 C.3     2  LIG2        0.1658
     73 C           6.5194   -8.9499   -1.7872 C.3     2  LIG2        0.1552
     74 C           7.7776  -11.6211   -1.1846 C.3     2  LIG2        0.0400
     75 C           5.4720   -6.6277   -1.3276 C.3     2  LIG2        0.0148
     76 C           6.3677   -5.4979   -1.7606 C.ar    2  LIG2       -0.0019
     77 C           5.8621   -4.2824   -2.2222 C.ar    2  LIG2        0.1272
     78 C           6.7030   -3.3174   -2.7451 C.ar    2  LIG2       -0.0008
     79 C           8.0573   -3.5239   -2.6941 C.ar    2  LIG2       -0.0511
     80 C           8.6231   -4.6772   -2.1548 C.ar    2  LIG2       -0.0412
     81 C           7.7309   -5.6720   -1.7218 C.ar    2  LIG2       -0.0513
     82 C           4.1035   -3.4964   -0.9436 C.3     2  LIG2        0.0894
     83 C           2.6253   -3.0363   -1.1091 C.3     2  LIG2       -0.0215
     84 C           1.9981   -4.1338   -0.9743 C.3     2  LIG2       -0.0622
     85 C          10.1362   -4.8500   -2.0302 C.3     2  LIG2       -0.0127
     86 C          10.5073   -4.9883   -0.6332 C.3     2  LIG2       -0.0560
     87 C          10.5267   -6.0964   -2.8084 C.3     2  LIG2       -0.0560
     88 C          10.8957   -3.7386   -2.7022 C.3     2  LIG2       -0.0560
     89 C           6.1518   -2.0409   -3.3762 C.3     2  LIG2        0.0045
     90 C           6.5854   -1.9507   -4.8285 C.ar    2  LIG2       -0.0007
     91 C           5.9543   -2.7636   -5.7762 C.ar    2  LIG2        0.1274
     92 C           6.4268   -2.8511   -7.0813 C.ar    2  LIG2       -0.0007
     93 C           7.5209   -2.0488   -7.4245 C.ar    2  LIG2       -0.0511
     94 C           8.1615   -1.2202   -6.5462 C.ar    2  LIG2       -0.0412
     95 C           7.6792   -1.1879   -5.2410 C.ar    2  LIG2       -0.0511
     96 C           3.6229   -2.9104   -5.5576 C.3     2  LIG2        0.0894
     97 C           2.5937   -3.8358   -5.1389 C.3     2  LIG2       -0.0215
     98 C           1.2162   -3.0999   -5.3575 C.3     2  LIG2       -0.0622
     99 C           9.3649   -0.3646   -6.9057 C.3     2  LIG2       -0.0127
    100 C          10.4966   -0.5776   -6.0029 C.3     2  LIG2       -0.0560
    101 C           9.9363   -0.7929   -8.2619 C.3     2  LIG2       -0.0560
    102 C           8.9469    1.0241   -7.1099 C.3     2  LIG2       -0.0560
    103 C           5.8852   -3.9140   -8.0148 C.3     2  LIG2        0.0045
    104 C           6.4722   -5.2573   -7.6287 C.ar    2  LIG2       -0.0008
    105 C           5.6686   -6.3008   -7.1692 C.ar    2  LIG2        0.1272
    106 C           6.2322   -7.4483   -6.6340 C.ar    2  LIG2       -0.0019
    107 C           7.6148   -7.5746   -6.6442 C.ar    2  LIG2       -0.0513
    108 C           8.4431   -6.6104   -7.1855 C.ar    2  LIG2       -0.0412
    109 C           7.8464   -5.4615   -7.6389 C.ar    2  LIG2       -0.0511
    110 C           3.6997   -6.6538   -8.4151 C.3     2  LIG2        0.0894
    111 C           2.2031   -6.5229   -8.3661 C.3     2  LIG2       -0.0215
    112 C           1.8863   -5.2485   -8.8318 C.3     2  LIG2       -0.0622
    113 C           9.9643   -6.7913   -7.2897 C.3     2  LIG2       -0.0127
    114 C          10.4810   -7.9523   -6.4359 C.3     2  LIG2       -0.0560
    115 C          10.2916   -7.1125   -8.7358 C.3     2  LIG2       -0.0560
    116 C          10.7050   -5.5056   -6.8607 C.3     2  LIG2       -0.0560
    117 C           5.3588   -8.5382   -6.0560 C.3     2  LIG2        0.0148
    118 H           2.2661    9.3340   -4.2280 H       1  LIG1        0.0686
    119 H           5.4170    8.3688   -2.9514 H       1  LIG1        0.0686
    120 H           2.6425   11.5656   -3.2905 H       1  LIG1        0.0525
    121 H           4.0875   12.1705   -3.3722 H       1  LIG1        0.0525
    122 H           3.5867   11.1790   -4.4812 H       1  LIG1        0.0525
    123 H           0.0724    6.2974   -3.2537 H       1  LIG1        0.0347
    124 H          -0.0953    7.6818   -3.9727 H       1  LIG1        0.0347
    125 H           1.2262    4.4069   -8.4273 H       1  LIG1        0.0624
    126 H           1.4892    7.7571   -6.1949 H       1  LIG1        0.0624
    127 H          -2.0339    5.2490   -4.2259 H       1  LIG1        0.0696
    128 H          -2.1251    4.0238   -5.2022 H       1  LIG1        0.0696
    129 H          -2.0159    2.6272   -3.3334 H       1  LIG1        0.0295
    130 H          -1.9836    3.8648   -2.3713 H       1  LIG1        0.0295
    131 H          -4.0868    2.8092   -3.6990 H       1  LIG1        0.0231
    132 H          -4.0330    3.3984   -2.2488 H       1  LIG1        0.0231
    133 H          -4.0831    4.3614   -3.4845 H       1  LIG1        0.0231
    134 H           0.2858    8.3064   -9.1279 H       1  LIG1        0.0238
    135 H           0.6803    7.5080  -10.4167 H       1  LIG1        0.0238
    136 H          -0.1877    6.8233   -9.3036 H       1  LIG1        0.0238
    137 H           3.5516    8.0373   -8.3722 H       1  LIG1        0.0238
    138 H           2.4765    8.9370   -9.0748 H       1  LIG1        0.0238
    139 H           2.3302    8.5840   -7.5532 H       1  LIG1        0.0238
    140 H           2.0883    5.6896  -10.3167 H       1  LIG1        0.0238
    141 H           3.2703    6.7092  -10.1655 H       1  LIG1        0.0238
    142 H           3.1359    5.5120   -9.1626 H       1  LIG1        0.0238
    143 H          -0.1876    2.3776   -5.8620 H       1  LIG1        0.0364
    144 H          -0.3153    2.5388   -7.4163 H       1  LIG1        0.0364
    145 H           4.8638    0.2936   -7.2938 H       1  LIG1        0.0624
    146 H           1.3443    1.5407   -8.8215 H       1  LIG1        0.0624
    147 H           0.5631    1.0453   -4.0891 H       1  LIG1        0.0696
    148 H           1.9471    0.5485   -3.5437 H       1  LIG1        0.0696
    149 H           1.9387    2.2106   -1.9628 H       1  LIG1        0.0295
    150 H           0.5771    2.7493   -2.5245 H       1  LIG1        0.0295
    151 H           0.9922    0.4604   -0.9518 H       1  LIG1        0.0231
    152 H          -0.2056    1.4690   -0.8701 H       1  LIG1        0.0231
    153 H          -0.1650    0.3893   -2.0057 H       1  LIG1        0.0231
    154 H           2.5253   -1.4497   -9.9715 H       1  LIG1        0.0238
    155 H           4.0600   -1.6180  -10.2431 H       1  LIG1        0.0238
    156 H           3.5268   -1.5602   -8.7705 H       1  LIG1        0.0238
    157 H           5.5777   -0.1673   -9.6283 H       1  LIG1        0.0238
    158 H           5.1647    0.6714  -10.8865 H       1  LIG1        0.0238
    159 H           5.3216    1.3741   -9.4915 H       1  LIG1        0.0238
    160 H           3.2344    1.6780  -11.0744 H       1  LIG1        0.0238
    161 H           2.7308    0.2612  -11.5115 H       1  LIG1        0.0238
    162 H           1.9121    1.0953  -10.4678 H       1  LIG1        0.0238
    163 H           4.2733    0.9373   -3.9972 H       1  LIG1        0.0364
    164 H           5.4125    0.6714   -5.0409 H       1  LIG1        0.0364
    165 H           6.1344    6.2728   -4.4343 H       1  LIG1        0.0624
    166 H           5.8201    2.8515   -6.5523 H       1  LIG1        0.0624
    167 H           6.0042    1.4593   -2.0139 H       1  LIG1        0.0696
    168 H           6.1939    2.8295   -1.2766 H       1  LIG1        0.0696
    169 H           5.6576    4.8593   -8.5887 H       1  LIG1        0.0238
    170 H           7.2165    4.8471   -8.7603 H       1  LIG1        0.0238
    171 H           6.5039    3.6837   -7.9862 H       1  LIG1        0.0238
    172 H           8.6589    4.9551   -6.9547 H       1  LIG1        0.0238
    173 H           8.3605    6.4859   -7.1140 H       1  LIG1        0.0238
    174 H           8.2278    5.8040   -5.7088 H       1  LIG1        0.0238
    175 H           6.5646    7.3880   -6.5768 H       1  LIG1        0.0238
    176 H           6.0083    7.0086   -7.9923 H       1  LIG1        0.0238
    177 H           5.1394    6.7494   -6.7137 H       1  LIG1        0.0238
    178 H           5.9001    5.8755   -1.7913 H       1  LIG1        0.0347
    179 H           4.6971    4.9306   -1.4481 H       1  LIG1        0.0347
    180 H           7.3261  -10.2261   -4.5405 H       2  LIG2        0.0686
    181 H           7.3101   -8.9838   -1.2439 H       2  LIG2        0.0686
    182 H           4.5604   -6.3355   -1.3991 H       2  LIG2        0.0347
    183 H           5.6689   -6.8474   -0.4146 H       2  LIG2        0.0347
    184 H           8.6455   -2.8611   -3.0637 H       2  LIG2        0.0624
    185 H           8.0904   -6.4962   -1.3848 H       2  LIG2        0.0624
    186 H           4.1787   -4.1414   -0.2369 H       2  LIG2        0.0696
    187 H           4.6614   -2.7394   -0.7476 H       2  LIG2        0.0696
    188 H          11.0531   -3.0348   -2.0670 H       2  LIG2        0.0238
    189 H          11.7362   -4.0681   -3.0270 H       2  LIG2        0.0238
    190 H          10.3796   -3.3975   -3.4375 H       2  LIG2        0.0238
    191 H           5.1929   -2.0612   -3.3293 H       2  LIG2        0.0364
    192 H           6.4809   -1.2724   -2.9065 H       2  LIG2        0.0364
    193 H           7.8367   -2.1009   -8.3293 H       2  LIG2        0.0624
    194 H           8.1012   -0.6153   -4.5977 H       2  LIG2        0.0624
    195 H           3.5704   -2.1138   -5.0225 H       2  LIG2        0.0696
    196 H           3.4954   -2.6840   -6.4808 H       2  LIG2        0.0696
    197 H          11.0652   -1.3076   -6.2562 H       2  LIG2        0.0238
    198 H          11.0057    0.2367   -5.9968 H       2  LIG2        0.0238
    199 H          10.1392   -0.7382   -5.1267 H       2  LIG2        0.0238
    200 H           9.4996   -0.2706   -8.9380 H       2  LIG2        0.0238
    201 H          10.8828   -0.6311   -8.2946 H       2  LIG2        0.0238
    202 H           9.7665   -1.7250   -8.4171 H       2  LIG2        0.0238
    203 H           9.0574    1.4623   -6.2623 H       2  LIG2        0.0238
    204 H           9.4756    1.4721   -7.7737 H       2  LIG2        0.0238
    205 H           8.0222    1.0514   -7.3652 H       2  LIG2        0.0238
    206 H           4.9298   -3.9573   -7.9351 H       2  LIG2        0.0364
    207 H           6.1219   -3.6981   -8.9196 H       2  LIG2        0.0364
    208 H           8.0099   -8.3695   -6.2766 H       2  LIG2        0.0624
    209 H           8.4072   -4.7637   -7.9862 H       2  LIG2        0.0624
    210 H           4.0205   -6.1339   -9.1545 H       2  LIG2        0.0696
    211 H           3.9615   -7.5709   -8.5295 H       2  LIG2        0.0696
    212 H           1.7970   -7.1883   -8.9257 H       2  LIG2        0.0295
    213 H           1.9054   -6.6400   -7.4612 H       2  LIG2        0.0295
    214 H          10.4741   -8.7604   -6.9547 H       2  LIG2        0.0238
    215 H          11.3772   -7.7679   -6.1459 H       2  LIG2        0.0238
    216 H           9.9112   -8.0580   -5.6720 H       2  LIG2        0.0238
    217 H          10.4466   -6.2904   -9.2055 H       2  LIG2        0.0238
    218 H          11.0732   -7.6680   -8.7950 H       2  LIG2        0.0238
    219 H           9.5444   -7.5698   -9.1320 H       2  LIG2        0.0238
    220 H          10.8858   -5.5563   -5.9192 H       2  LIG2        0.0238
    221 H          11.5331   -5.4445   -7.3407 H       2  LIG2        0.0238
    222 H          10.1710   -4.7299   -7.0425 H       2  LIG2        0.0238
    223 H           5.5328   -9.3455   -6.5482 H       2  LIG2        0.0347
    224 H           4.4399   -8.2866   -6.1663 H       2  LIG2        0.0347
    225 H           1.7457   -5.2623   -9.7815 H       2  LIG2        0.0231
    226 H           1.0777   -4.9387   -8.4008 H       2  LIG2        0.0231
    227 H           2.6002   -4.6389   -8.6255 H       2  LIG2        0.0231
    228 H           1.7844   -4.2975   -0.0551 H       2  LIG2        0.0231
    229 H           1.2006   -4.1171   -1.4971 H       2  LIG2        0.0231
    230 H           2.5855   -4.8206   -1.2949 H       2  LIG2        0.0231
    231 H           5.7071    1.2442    0.2431 H       1  LIG1        0.0295
    232 H           4.5005    2.2416    0.1471 H       1  LIG1        0.0295
    233 H           2.6284   -4.6228   -5.6904 H       2  LIG2        0.0295
    234 H           2.7352   -4.0803   -4.2218 H       2  LIG2        0.0295
    235 H           0.8725   -3.2642   -6.2378 H       2  LIG2        0.0231
    236 H           0.5969   -3.4358   -4.7059 H       2  LIG2        0.0231
    237 H           1.3338   -2.1543   -5.2308 H       2  LIG2        0.0231
    238 H          10.7172   -5.8814   -3.7235 H       2  LIG2        0.0238
    239 H          11.2915   -6.5237   -2.4142 H       2  LIG2        0.0238
    240 H           9.7756   -6.6971   -2.7717 H       2  LIG2        0.0238
    241 H          10.4819   -5.9146   -0.3779 H       2  LIG2        0.0238
    242 H          11.3962   -4.6470   -0.5106 H       2  LIG2        0.0238
    243 H           9.8948   -4.4911   -0.0878 H       2  LIG2        0.0238
    244 H           4.6167   -0.2981   -0.4759 H       1  LIG1        0.0231
    245 H           3.4624    0.5070    0.2145 H       1  LIG1        0.0231
    246 H           3.6829    0.6235   -1.3338 H       1  LIG1        0.0231
    247 H           7.2202  -11.4977   -0.4228 H       2  LIG2        0.0525
    248 H           7.9826  -12.5582   -1.2888 H       2  LIG2        0.0525
    249 H           8.5921  -11.1276   -1.0866 H       2  LIG2        0.0525
    250 H           2.3645   -2.4357   -0.4003 H       2  LIG2        0.0295
    251 H           2.4664   -2.6042   -1.9567 H       2  LIG2        0.0295
@<TRIPOS>BOND
     1   161    52    1
     2   160    52    1
     3   158    51    1
     4    52   162    1
     5    52    49    1
     6   135    36    1
     7   140    38    1
     8   155    50    1
     9   141    38    1
    10   154    50    1
    11    51    49    1
    12    51   157    1
    13    51   159    1
    14   225   112    1
    15    38   142    1
    16    38    35    1
    17    50    49    1
    18    50   156    1
    19    49    44    1
    20    36   136    1
    21    36   134    1
    22    36    35    1
    23   217   115    1
    24   210   110    1
    25   219   115    1
    26   138    37    1
    27   200   101    1
    28   212   111    1
    29   207   103    1
    30   112   227    1
    31   112   226    1
    32   112   111    1
    33   146    45    1
    34   218   115    1
    35   170    64    1
    36    35    37    1
    37    35    30    1
    38   115   113    1
    39   169    64    1
    40   211   110    1
    41   125    29    1
    42   202   101    1
    43   110   111    1
    44   110    16    1
    45    37   137    1
    46    37   139    1
    47   111   213    1
    48   193    93    1
    49   201   101    1
    50    44    45   ar
    51    44    43   ar
    52   101    99    1
    53    64   171    1
    54    64    63    1
    55    45    40   ar
    56   103   206    1
    57   103   104    1
    58   103    92    1
    59   176    66    1
    60   209   109    1
    61   204   102    1
    62   109   104   ar
    63   109   108   ar
    64   104   105   ar
    65    29    30   ar
    66    29    28   ar
    67    30    31   ar
    68    93    92   ar
    69    93    94   ar
    70   144    39    1
    71   205   102    1
    72   221   116    1
    73   145    43    1
    74   113   108    1
    75   113   116    1
    76   113   114    1
    77    16   105    1
    78   108   107   ar
    79    43    42   ar
    80   105   106   ar
    81   173    65    1
    82   102    99    1
    83   102   203    1
    84    92    91   ar
    85    66    63    1
    86    66   177    1
    87    66   175    1
    88   222   116    1
    89   172    65    1
    90   214   114    1
    91    63    65    1
    92    63    58    1
    93    99    94    1
    94    99   100    1
    95   116   220    1
    96    40    39    1
    97    40    41   ar
    98    39    28    1
    99    39   143    1
   100    65   174    1
   101   107   106   ar
   102   107   208    1
   103   106   117    1
   104   166    59    1
   105   223   117    1
   106    94    95   ar
   107    28    27   ar
   108   196    96    1
   109   114   215    1
   110   114   216    1
   111    31   126    1
   112    31    26   ar
   113   197   100    1
   114   235    98    1
   115   224   117    1
   116   117    70    1
   117   100   198    1
   118   100   199    1
   119    42    41   ar
   120    42    53    1
   121    91    15    1
   122    91    90   ar
   123    41     7    1
   124    59    58   ar
   125    59    54   ar
   126   233    97    1
   127    58    57   ar
   128    96    15    1
   129    96    97    1
   130    96   195    1
   131    98   237    1
   132    98    97    1
   133    98   236    1
   134    27    26   ar
   135    27     6    1
   136    95    90   ar
   137    95   194    1
   138    26    25    1
   139   128    32    1
   140    97   234    1
   141   164    53    1
   142    90    89    1
   143    53    54    1
   144    53   163    1
   145     1    18    1
   146    54    55   ar
   147    70    11    1
   148    70    69    1
   149    70    71    1
   150   180    69    1
   151     7    46    1
   152    57   165    1
   153    57    56   ar
   154   122    24    1
   155    32     6    1
   156    32   127    1
   157    32    33    1
   158   118    19    1
   159    11    69    1
   160    69    68    1
   161   147    46    1
   162    13    71    2
   163   124    25    1
   164    25   123    1
   165    25    20    1
   166   238    87    1
   167   131    34    1
   168    46   148    1
   169    46    47    1
   170    71    72    1
   171    24   121    1
   172    24   120    1
   173    24     2    1
   174    19    18    1
   175    19    20    1
   176    19     3    1
   177   133    34    1
   178    55    56   ar
   179    55     8    1
   180   190    88    1
   181    18     2    1
   182    18    23    1
   183    56    67    1
   184    89   191    1
   185    89   192    1
   186    89    78    1
   187   129    33    1
   188    20    21    1
   189    20     3    1
   190    33    34    1
   191    33   130    1
   192    34   132    1
   193   184    79    1
   194   189    88    1
   195     9    68    1
   196   119    23    1
   197    87   240    1
   198    87   239    1
   199    87    85    1
   200    68    10    1
   201    68    73    1
   202     5    21    2
   203    21    22    1
   204    78    79   ar
   205    78    77   ar
   206    88   188    1
   207    88    85    1
   208    79    80   ar
   209    23    22    1
   210    23     4    1
   211   150    47    1
   212    47   149    1
   213    47    48    1
   214    10    74    1
   215     8    60    1
   216    22    67    1
   217    22     4    1
   218    77    14    1
   219    77    76   ar
   220    14    82    1
   221    72    73    1
   222    72    12    1
   223    72    75    1
   224    80    85    1
   225    80    81   ar
   226    67   178    1
   227    67   179    1
   228    85    86    1
   229   167    60    1
   230   153    48    1
   231   251    83    1
   232    73    12    1
   233    73   181    1
   234    76    81   ar
   235    76    75    1
   236    81   185    1
   237    60   168    1
   238    60    61    1
   239   229    84    1
   240    48   151    1
   241    48   152    1
   242   182    75    1
   243   246    62    1
   244    75   183    1
   245   230    84    1
   246   248    74    1
   247    74   249    1
   248    74   247    1
   249    83    84    1
   250    83    82    1
   251    83   250    1
   252    84   228    1
   253    82   187    1
   254    82   186    1
   255    86   242    1
   256    86   241    1
   257    86   243    1
   258    62   244    1
   259    62    61    1
   260    62   245    1
   261    61   232    1
   262    61   231    1
