@<TRIPOS>MOLECULE
?
 26 28 0 0 0
SMALL
GASTEIGER

@<TRIPOS>ATOM
      1 C           2.5002    2.1657    8.1477 C.3     1  LIG1        0.1868
      2 H           1.7370    2.4368    7.5612 H       1  LIG1        0.0965
      3 C           3.4876    1.3308    7.3700 C.ar    1  LIG1        0.0156
      4 C           3.0525    0.6240    6.2580 C.ar    1  LIG1       -0.0532
      5 H           2.1549    0.7126    5.9603 H       1  LIG1        0.0622
      6 C           3.9291   -0.2123    5.5810 C.ar    1  LIG1       -0.0611
      7 H           3.6439   -0.6856    4.8077 H       1  LIG1        0.0618
      8 C           5.2212   -0.3465    6.0472 C.ar    1  LIG1       -0.0582
      9 H           5.8108   -0.9368    5.5924 H       1  LIG1        0.0620
     10 C           5.6960    0.3508    7.1609 C.ar    1  LIG1       -0.0426
     11 C           4.8217    1.2375    7.8216 C.ar    1  LIG1       -0.0090
     12 C           5.1779    2.1021    8.9861 C.2     1  LIG1       -0.0159
     13 C           3.9717    2.6795    9.6849 C.3     1  LIG1        0.1103
     14 H           4.2470    3.3390   10.3838 H       1  LIG1        0.0670
     15 C           3.0379    1.6120   10.2785 C.3     1  LIG1        0.0814
     16 H           3.5271    0.7677   10.4441 H       1  LIG1        0.0590
     17 H           2.6396    1.9250   11.1296 H       1  LIG1        0.0590
     18 C           7.1088    0.0824    7.6033 C.3     1  LIG1       -0.0391
     19 H           7.1369    0.0084    8.5795 H       1  LIG1        0.0278
     20 H           7.6868    0.8191    7.3151 H       1  LIG1        0.0278
     21 H           7.4230   -0.7547    7.2034 H       1  LIG1        0.0278
     22 C           6.3868    2.4756    9.3993 C.2     1  LIG1       -0.0924
     23 H           7.1600    2.1837    8.9311 H       1  LIG1        0.0538
     24 H           6.4766    3.0336   10.1628 H       1  LIG1        0.0538
     25 O           3.1243    3.3030    8.6950 O.3     1  LIG1       -0.3370
     26 O           2.0220    1.4283    9.2724 O.3     1  LIG1       -0.3442
@<TRIPOS>BOND
     1     7     6    1
     2     6     8   ar
     3     6     4   ar
     4     9     8    1
     5     5     4    1
     6     8    10   ar
     7     4     3   ar
     8    10    18    1
     9    10    11   ar
    10    21    18    1
    11    20    18    1
    12     3    11   ar
    13     3     1    1
    14     2     1    1
    15    18    19    1
    16    11    12    1
    17     1    25    1
    18     1    26    1
    19    25    13    1
    20    23    22    1
    21    12    22    2
    22    12    13    1
    23    26    15    1
    24    22    24    1
    25    13    15    1
    26    13    14    1
    27    15    16    1
    28    15    17    1
