@<TRIPOS>MOLECULE
C15 H17 Cl2 N O
 36 39 0 0 0
SMALL
GASTEIGER

@<TRIPOS>ATOM
      1 C           8.7720    3.2888    5.8340 C.3     1  LIG1        0.0863
      2 C           9.2602    1.9968    5.1857 C.3     1  LIG1        0.0196
      3 C          10.7550    1.8162    4.9834 C.3     1  LIG1       -0.0413
      4 C          11.3786    3.1799    4.6561 C.3     1  LIG1       -0.0270
      5 C          11.1301    4.1380    5.7938 C.ar    1  LIG1       -0.0423
      6 C          12.1457    4.9266    6.3324 C.ar    1  LIG1       -0.0583
      7 C          11.9212    5.7301    7.4350 C.ar    1  LIG1       -0.0615
      8 C          10.6670    5.7575    8.0320 C.ar    1  LIG1       -0.0614
      9 C           9.6461    4.9702    7.5141 C.ar    1  LIG1       -0.0564
     10 C           9.8595    4.1657    6.3909 C.ar    1  LIG1       -0.0208
     11 C           8.5703    1.9440    6.5134 C.3     1  LIG1        0.1459
     12 N           7.6117    3.8771    5.2153 N.3     1  LIG1       -0.2856
     13 C           7.9360    4.6176    3.9966 C.3     1  LIG1        0.0234
     14 C           6.6472    5.0293    3.3105 C.3     1  LIG1        0.0605
     15 O           5.8318    5.8248    4.1674 O.3     1  LIG1       -0.3772
     16 C           5.5122    5.0892    5.3534 C.3     1  LIG1        0.0605
     17 C           6.7790    4.7038    6.0912 C.3     1  LIG1        0.0234
     18 CL          6.9625    1.2448    6.5911 Cl      1  LIG1       -0.0982
     19 CL          9.4776    1.5843    7.9777 Cl      1  LIG1       -0.0982
     20 H           8.7415    1.7181    4.4344 H       1  LIG1        0.0352
     21 H          11.2101    1.4639    5.8569 H       1  LIG1        0.0273
     22 H          10.8988    1.2112    4.2541 H       1  LIG1        0.0273
     23 H          12.3656    3.0928    4.5079 H       1  LIG1        0.0313
     24 H          10.9897    3.5389    3.8334 H       1  LIG1        0.0313
     25 H          13.0768    4.9163    5.9170 H       1  LIG1        0.0620
     26 H          12.6808    6.2789    7.8137 H       1  LIG1        0.0618
     27 H          10.4924    6.2924    8.7620 H       1  LIG1        0.0618
     28 H           8.7119    5.0150    7.9673 H       1  LIG1        0.0621
     29 H           8.4820    5.4597    4.1806 H       1  LIG1        0.0449
     30 H           8.4634    4.0079    3.4060 H       1  LIG1        0.0449
     31 H           6.8107    5.5800    2.5244 H       1  LIG1        0.0572
     32 H           6.0991    4.1918    3.0320 H       1  LIG1        0.0572
     33 H           4.9562    5.6503    5.9170 H       1  LIG1        0.0572
     34 H           4.9653    4.2959    5.1089 H       1  LIG1        0.0572
     35 H           7.2177    5.5962    6.3778 H       1  LIG1        0.0449
     36 H           6.5440    4.1539    6.9188 H       1  LIG1        0.0449
@<TRIPOS>BOND
     1    31    14    1
     2    32    14    1
     3    14    13    1
     4    14    15    1
     5    30    13    1
     6    24     4    1
     7    13    29    1
     8    13    12    1
     9    15    16    1
    10    22     3    1
    11    20     2    1
    12    23     4    1
    13     4     3    1
    14     4     5    1
    15     3     2    1
    16     3    21    1
    17    34    16    1
    18     2     1    1
    19     2    11    1
    20    12     1    1
    21    12    17    1
    22    16    33    1
    23    16    17    1
    24     5     6   ar
    25     5    10   ar
    26     1    10    1
    27     1    11    1
    28    25     6    1
    29    17    35    1
    30    17    36    1
    31     6     7   ar
    32    10     9   ar
    33    11    18    1
    34    11    19    1
    35     7    26    1
    36     7     8   ar
    37     9    28    1
    38     9     8   ar
    39     8    27    1
