@<TRIPOS>MOLECULE
(S)-MPA thioester of 1-thio-beta-D-glucose tetraacetate
 126 128 0 0 0
SMALL
GASTEIGER

@<TRIPOS>ATOM
      1 O          12.0704    4.7034   12.1610 O.3     1  LIG1       -0.3514
      2 C          11.0189    5.1530   11.3217 C.3     1  LIG1        0.1521
      3 H          11.2243    4.9416   10.3864 H       1  LIG1        0.0756
      4 C          10.8766    6.6573   11.4936 C.3     1  LIG1        0.1788
      5 H          10.6655    6.8706   12.4271 H       1  LIG1        0.0808
      6 C          12.1675    7.3491   11.0789 C.3     1  LIG1        0.1821
      7 H          12.2998    7.2784   10.1114 H       1  LIG1        0.0812
      8 C          13.3400    6.7390   11.8239 C.3     1  LIG1        0.1724
      9 H          13.3193    7.0092   12.7654 H       1  LIG1        0.0800
     10 C          13.3408    5.2068   11.7109 C.3     1  LIG1        0.1346
     11 H          13.4928    4.9416   10.7790 H       1  LIG1        0.0669
     12 S           9.5039    4.3001   11.8304 S.3     1  LIG1       -0.0498
     13 C           9.1067    3.4971   10.2798 C.2     1  LIG1        0.2248
     14 O           9.7466    3.6008    9.2663 O.2     1  LIG1       -0.2820
     15 C           7.8274    2.6478   10.3455 C.3     1  LIG1        0.1513
     16 H           8.0238    1.7496   10.0083 H       1  LIG1        0.0736
     17 O           7.3621    2.5451   11.6685 O.3     1  LIG1       -0.3667
     18 C           7.9469    1.4435   12.3855 C.3     1  LIG1        0.0378
     19 H           7.6669    0.6171   11.9857 H       1  LIG1        0.0524
     20 H           7.6610    1.4704   13.3009 H       1  LIG1        0.0524
     21 H           8.9032    1.5093   12.3475 H       1  LIG1        0.0524
     22 C           6.7606    3.2738    9.4764 C.ar    1  LIG1       -0.0109
     23 C           6.1561    4.4681    9.8581 C.ar    1  LIG1       -0.0557
     24 H           6.3912    4.8679   10.6650 H       1  LIG1        0.0621
     25 C           5.2079    5.0623    9.0530 C.ar    1  LIG1       -0.0614
     26 H           4.7961    5.8518    9.3226 H       1  LIG1        0.0618
     27 C           4.8685    4.4880    7.8427 C.ar    1  LIG1       -0.0617
     28 H           4.2528    4.9097    7.2891 H       1  LIG1        0.0618
     29 C           5.4336    3.3007    7.4501 C.ar    1  LIG1       -0.0614
     30 H           5.1791    2.9000    6.6505 H       1  LIG1        0.0618
     31 C           6.3972    2.6996    8.2715 C.ar    1  LIG1       -0.0557
     32 H           6.7960    1.9031    8.0037 H       1  LIG1        0.0621
     33 O           9.8062    7.0870   10.6335 O.3     1  LIG1       -0.4541
     34 C           8.8041    7.8127   11.2081 C.2     1  LIG1        0.3044
     35 O           8.8639    8.2484   12.3187 O.2     1  LIG1       -0.2512
     36 C           7.6530    7.9602   10.2807 C.3     1  LIG1        0.0332
     37 H           6.8573    8.1467   10.7844 H       1  LIG1        0.0342
     38 H           7.5351    7.1468    9.7857 H       1  LIG1        0.0342
     39 H           7.8239    8.6830    9.6718 H       1  LIG1        0.0342
     40 O          12.0117    8.7308   11.4684 O.3     1  LIG1       -0.4538
     41 C          12.3130    9.7098   10.5801 C.2     1  LIG1        0.3044
     42 O          12.8643    9.5194    9.5326 O.2     1  LIG1       -0.2512
     43 C          11.8244   11.0377   11.0757 C.3     1  LIG1        0.0332
     44 H          12.4392   11.7245   10.8097 H       1  LIG1        0.0342
     45 H          11.7609   11.0187   12.0327 H       1  LIG1        0.0342
     46 H          10.9602   11.2211   10.7012 H       1  LIG1        0.0342
     47 O          14.5388    7.2335   11.1896 O.3     1  LIG1       -0.4549
     48 C          15.5712    7.6143   11.9896 C.2     1  LIG1        0.3044
     49 O          15.5302    7.5625   13.1853 O.2     1  LIG1       -0.2512
     50 C          16.7305    8.0639   11.1768 C.3     1  LIG1        0.0332
     51 H          16.9723    8.9571   11.4303 H       1  LIG1        0.0342
     52 H          16.4938    8.0480   10.2471 H       1  LIG1        0.0342
     53 H          17.4739    7.4748   11.3271 H       1  LIG1        0.0342
     54 C          14.3911    4.5897   12.5970 C.3     1  LIG1        0.1222
     55 H          15.2735    4.8938   12.3330 H       1  LIG1        0.0725
     56 H          14.2409    4.8429   13.5216 H       1  LIG1        0.0725
     57 O          14.2897    3.1502   12.4470 O.3     1  LIG1       -0.4621
     58 C          15.1074    2.4394   13.2425 C.2     1  LIG1        0.3040
     59 O          15.9028    2.9428   13.9884 O.2     1  LIG1       -0.2512
     60 C          14.8677    0.9700   13.0929 C.3     1  LIG1        0.0332
     61 H          15.6354    0.4865   13.4077 H       1  LIG1        0.0342
     62 H          14.7154    0.7626   12.1684 H       1  LIG1        0.0342
     63 H          14.0980    0.7168   13.6103 H       1  LIG1        0.0342
     64 O           8.3112    6.9075   15.0348 O.3     2  LIG2       -0.3514
     65 C           9.3546    7.3541   15.8748 C.3     2  LIG2        0.1521
     66 H           9.1369    7.1597   16.8107 H       2  LIG2        0.0756
     67 C           9.5920    8.8445   15.6955 C.3     2  LIG2        0.1788
     68 H           9.8790    9.0379   14.7790 H       2  LIG2        0.0808
     69 C           8.3077    9.6091   16.0241 C.3     2  LIG2        0.1821
     70 H           8.0897    9.5204   16.9753 H       2  LIG2        0.0812
     71 C           7.1827    9.0538   15.1669 C.3     2  LIG2        0.1724
     72 H           7.3380    9.2772   14.2254 H       2  LIG2        0.0800
     73 C           7.0653    7.5406   15.3319 C.3     2  LIG2        0.1346
     74 H           6.7920    7.3242   16.2480 H       2  LIG2        0.0669
     75 S          10.8264    6.4104   15.3677 S.3     2  LIG2       -0.0498
     76 C          11.3117    5.7342   16.9480 C.2     2  LIG2        0.2248
     77 O          10.7025    5.8658   17.9740 O.2     2  LIG2       -0.2820
     78 C          12.6530    4.9845   16.8847 C.3     2  LIG2        0.1513
     79 H          12.6308    4.2159   17.4909 H       2  LIG2        0.0736
     80 O          12.9177    4.5459   15.5792 O.3     2  LIG2       -0.3667
     81 C          12.3051    3.2928   15.2838 C.3     2  LIG2        0.0378
     82 H          12.7521    2.5959   15.7704 H       2  LIG2        0.0524
     83 H          12.3693    3.1183   14.3430 H       2  LIG2        0.0524
     84 H          11.3803    3.3207   15.5425 H       2  LIG2        0.0524
     85 C          13.7372    5.9585   17.3334 C.ar    2  LIG2       -0.0109
     86 C          14.4022    6.7719   16.4525 C.ar    2  LIG2       -0.0557
     87 H          14.2110    6.7271   15.5443 H       2  LIG2        0.0621
     88 C          15.3578    7.6582   16.9120 C.ar    2  LIG2       -0.0614
     89 H          15.8106    8.1995   16.3077 H       2  LIG2        0.0618
     90 C          15.6471    7.7489   18.2508 C.ar    2  LIG2       -0.0617
     91 H          16.2870    8.3540   18.5475 H       2  LIG2        0.0618
     92 C          14.9847    6.9424   19.1535 C.ar    2  LIG2       -0.0614
     93 H          15.1759    6.9992   20.0617 H       2  LIG2        0.0618
     94 C          14.0249    6.0392   18.6922 C.ar    2  LIG2       -0.0557
     95 H          13.5773    5.4909   19.2947 H       2  LIG2        0.0621
     96 O          10.6098    9.2253   16.6281 O.3     2  LIG2       -0.4541
     97 C          11.7649    9.7587   16.1283 C.2     2  LIG2        0.3044
     98 O          11.9284   10.0029   14.9699 O.2     2  LIG2       -0.2512
     99 C          12.7584    9.9600   17.2150 C.3     2  LIG2        0.0332
    100 H          13.5881   10.2621   16.8378 H       2  LIG2        0.0342
    101 H          12.8994    9.1296   17.6773 H       2  LIG2        0.0342
    102 H          12.4279   10.6170   17.8329 H       2  LIG2        0.0342
    103 O           8.5424   10.9918   15.6863 O.3     2  LIG2       -0.4538
    104 C           8.0931   11.9548   16.5364 C.2     2  LIG2        0.3044
    105 O           7.4874   11.7255   17.5412 O.2     2  LIG2       -0.2512
    106 C           8.4744   13.3236   16.0635 C.3     2  LIG2        0.0332
    107 H           7.7518   13.9337   16.2318 H       2  LIG2        0.0342
    108 H           8.6579   13.2967   15.1209 H       2  LIG2        0.0342
    109 H           9.2574   13.6177   16.5339 H       2  LIG2        0.0342
    110 O           5.9558    9.6540   15.6170 O.3     2  LIG2       -0.4549
    111 C           5.0369   10.0188   14.6846 C.2     2  LIG2        0.3044
    112 O           5.2367    9.9560   13.5030 O.2     2  LIG2       -0.2512
    113 C           3.7734   10.4575   15.3500 C.3     2  LIG2        0.0332
    114 H           3.2438   10.9639   14.7302 H       2  LIG2        0.0342
    115 H           3.9855   11.0048   16.1105 H       2  LIG2        0.0342
    116 H           3.2800    9.6869   15.6384 H       2  LIG2        0.0342
    117 C           6.0742    6.9773   14.3558 C.3     2  LIG2        0.1222
    118 H           5.2199    7.4299   14.4461 H       2  LIG2        0.0725
    119 H           6.3919    7.0979   13.4475 H       2  LIG2        0.0725
    120 O           5.9283    5.5717   14.6529 O.3     2  LIG2       -0.4621
    121 C           5.1882    4.8908   13.7767 C.2     2  LIG2        0.3040
    122 O           4.6815    5.4072   12.8152 O.2     2  LIG2       -0.2512
    123 C           5.0729    3.4423   14.1404 C.3     2  LIG2        0.0332
    124 H           4.1500    3.1761   14.1060 H       2  LIG2        0.0342
    125 H           5.4105    3.3087   15.0305 H       2  LIG2        0.0342
    126 H           5.5838    2.9149   13.5216 H       2  LIG2        0.0342
@<TRIPOS>BOND
     1    30    29    1
     2    28    27    1
     3    29    27   ar
     4    29    31   ar
     5    27    25   ar
     6    32    31    1
     7    31    22   ar
     8    25    26    1
     9    25    23   ar
    10    14    13    2
    11    22    23   ar
    12    22    15    1
    13    42    41    2
    14    39    36    1
    15    38    36    1
    16    23    24    1
    17    16    15    1
    18     7     6    1
    19    52    50    1
    20    13    15    1
    21    13    12    1
    22    36    37    1
    23    36    34    1
    24    15    17    1
    25     3     2    1
    26    41    43    1
    27    41    40    1
    28    33    34    1
    29    33     4    1
    30    46    43    1
    31    11    10    1
    32    44    43    1
    33    43    45    1
    34     6    40    1
    35     6     4    1
    36     6     8    1
    37    50    53    1
    38    50    51    1
    39    50    48    1
    40    47     8    1
    41    47    48    1
    42    34    35    2
    43     2     4    1
    44     2    12    1
    45     2     1    1
    46     4     5    1
    47    17    18    1
    48    10     8    1
    49    10     1    1
    50    10    54    1
    51     8     9    1
    52    19    18    1
    53    48    49    2
    54    62    60    1
    55    55    54    1
    56    21    18    1
    57    18    20    1
    58    57    54    1
    59    57    58    1
    60    54    56    1
    61   122   121    2
    62    60    58    1
    63    60    61    1
    64    60    63    1
    65    58    59    2
    66   119   117    1
    67   112   111    2
    68   126   123    1
    69   121   123    1
    70   121   120    1
    71   124   123    1
    72   123   125    1
    73    72    71    1
    74    83    81    1
    75   117   118    1
    76   117   120    1
    77   117    73    1
    78   111   113    1
    79   111   110    1
    80   114   113    1
    81    68    67    1
    82    98    97    2
    83    64    73    1
    84    64    65    1
    85   108   106    1
    86    71    73    1
    87    71   110    1
    88    71    69    1
    89    81    84    1
    90    81    80    1
    91    81    82    1
    92    73    74    1
    93   113   116    1
    94   113   115    1
    95    75    65    1
    96    75    76    1
    97    87    86    1
    98    80    78    1
    99   103    69    1
   100   103   104    1
   101    67    65    1
   102    67    69    1
   103    67    96    1
   104    65    66    1
   105    69    70    1
   106   106   107    1
   107   106   109    1
   108   106   104    1
   109    97    96    1
   110    97    99    1
   111    89    88    1
   112    86    88   ar
   113    86    85   ar
   114   104   105    2
   115   100    99    1
   116    78    76    1
   117    78    85    1
   118    78    79    1
   119    88    90   ar
   120    76    77    2
   121    99   101    1
   122    99   102    1
   123    85    94   ar
   124    90    91    1
   125    90    92   ar
   126    94    92   ar
   127    94    95    1
   128    92    93    1
