@<TRIPOS>MOLECULE
3-methyl-1-(phenylsulfonyl)-2-oxabicyclo[3.2.0]heptane
 33 35 0 0 0
SMALL
GASTEIGER

@<TRIPOS>ATOM
      1 S           4.4663    4.1796   20.2503 S.O2    1  LIG1        0.0266
      2 O           3.8937    4.3071   21.5681 O.2     1  LIG1       -0.1666
      3 O           5.3095    2.2785   18.6706 O.3     1  LIG1       -0.3488
      4 O           5.7471    4.7948   19.9901 O.2     1  LIG1       -0.1666
      5 C           3.3162    4.7978   19.0696 C.ar    1  LIG1        0.0914
      6 C           4.6032    2.4235   19.8703 C.3     1  LIG1        0.1931
      7 C           3.7966    5.3114   17.8705 C.ar    1  LIG1       -0.0368
      8 H           4.7109    5.3435   17.7036 H       1  LIG1        0.0636
      9 C           1.9504    4.7372   19.3445 C.ar    1  LIG1       -0.0368
     10 H           1.6421    4.3947   20.1533 H       1  LIG1        0.0636
     11 C           5.3047    1.5739   20.9641 C.3     1  LIG1        0.0113
     12 H           5.5404    2.0727   21.7749 H       1  LIG1        0.0346
     13 C           3.3165    1.5832   20.0004 C.3     1  LIG1       -0.0023
     14 H           3.0904    1.0873   19.1983 H       1  LIG1        0.0310
     15 H           2.5531    2.0845   20.3260 H       1  LIG1        0.0310
     16 C           6.6747    1.9094   19.0296 C.3     1  LIG1        0.0590
     17 H           7.1676    2.7091   19.3098 H       1  LIG1        0.0594
     18 C           4.0133    0.7297   21.0871 C.3     1  LIG1       -0.0417
     19 H           4.1331   -0.1980   20.8308 H       1  LIG1        0.0271
     20 H           3.5912    0.7940   21.9584 H       1  LIG1        0.0271
     21 C           1.0597    5.2012   18.3810 C.ar    1  LIG1       -0.0600
     22 H           0.1443    5.1690   18.5427 H       1  LIG1        0.0618
     23 C           2.8920    5.7753   16.9245 C.ar    1  LIG1       -0.0600
     24 H           3.1988    6.1287   16.1214 H       1  LIG1        0.0618
     25 C           6.4996    0.9788   20.2187 C.3     1  LIG1       -0.0197
     26 H           7.2919    0.9751   20.7784 H       1  LIG1        0.0294
     27 H           6.3128    0.0726   19.9283 H       1  LIG1        0.0294
     28 C           1.5289    5.7101   17.1813 C.ar    1  LIG1       -0.0616
     29 H           0.9252    6.0114   16.5410 H       1  LIG1        0.0618
     30 C           7.3236    1.3205   17.8069 C.3     1  LIG1       -0.0386
     31 H           7.3401    1.9767   17.1070 H       1  LIG1        0.0255
     32 H           6.8228    0.5550   17.5156 H       1  LIG1        0.0255
     33 H           8.2212    1.0551   18.0183 H       1  LIG1        0.0255
@<TRIPOS>BOND
     1    24    23    1
     2    29    28    1
     3    23    28   ar
     4    23     7   ar
     5    31    30    1
     6    28    21   ar
     7    32    30    1
     8     8     7    1
     9    30    33    1
    10    30    16    1
    11     7     5   ar
    12    21    22    1
    13    21     9   ar
    14     3    16    1
    15     3     6    1
    16    16    17    1
    17    16    25    1
    18     5     9   ar
    19     5     1    1
    20    14    13    1
    21     9    10    1
    22     6    13    1
    23     6     1    1
    24     6    11    1
    25    27    25    1
    26     4     1    2
    27    13    15    1
    28    13    18    1
    29    25    26    1
    30    25    11    1
    31     1     2    2
    32    19    18    1
    33    11    18    1
    34    11    12    1
    35    18    20    1
