@<TRIPOS>MOLECULE
?
 35 35 0 0 0
SMALL
GASTEIGER

@<TRIPOS>ATOM
      1 S           1.6720    5.3057    5.5465 S.3     1  LIG1        0.0331
      2 O           0.3431    5.7472    5.0714 O.3     1  LIG1       -0.1455
      3 N           1.5232    3.8636    6.4201 N.3     1  LIG1       -0.2176
      4 N          -1.1348    4.6398    8.4587 N.1     1  LIG1       -0.1939
      5 F           0.6397    1.7439    8.0907 F       1  LIG1       -0.1672
      6 F           1.4656    2.6760    9.8162 F       1  LIG1       -0.1672
      7 F           2.7343    2.1059    8.2080 F       1  LIG1       -0.1672
      8 C           1.5577    2.6064    8.4971 C.3     1  LIG1        0.4259
      9 C           1.3420    4.0053    7.8622 C.3     1  LIG1        0.2371
     10 C          -0.0662    4.3830    8.2120 C.1     1  LIG1        0.0998
     11 C           2.3307    5.0016    8.4783 C.ar    1  LIG1       -0.0039
     12 C           1.9185    6.0443    9.2664 C.ar    1  LIG1       -0.0555
     13 C           2.8392    6.9214    9.8078 C.ar    1  LIG1       -0.0614
     14 C           4.1817    6.7397    9.5735 C.ar    1  LIG1       -0.0617
     15 C           4.6008    5.7018    8.8020 C.ar    1  LIG1       -0.0614
     16 C           3.6923    4.8343    8.2403 C.ar    1  LIG1       -0.0555
     17 C           2.5462    4.6054    4.0745 C.3     1  LIG1        0.0399
     18 C           3.8792    4.0541    4.5441 C.3     1  LIG1       -0.0484
     19 C           2.7616    5.8290    3.1867 C.3     1  LIG1       -0.0484
     20 C           1.6861    3.5835    3.3961 C.3     1  LIG1       -0.0484
     21 H           1.0317    6.1779    9.5092 H       1  LIG1        0.0621
     22 H           2.5273    7.6104   10.3077 H       1  LIG1        0.0618
     23 H           4.7275    7.2743    9.9655 H       1  LIG1        0.0618
     24 H           5.5172    5.5697    8.6277 H       1  LIG1        0.0618
     25 H           3.9675    4.1453    7.7152 H       1  LIG1        0.0621
     26 H           3.7371    3.2810    5.1435 H       1  LIG1        0.0244
     27 H           4.3467    4.6895    5.0916 H       1  LIG1        0.0244
     28 H           4.3983    3.8892    3.7435 H       1  LIG1        0.0244
     29 H           3.2177    6.5460    3.6813 H       1  LIG1        0.0244
     30 H           3.2505    5.6017    2.3643 H       1  LIG1        0.0244
     31 H           1.9435    6.2339    2.8932 H       1  LIG1        0.0244
     32 H           2.0575    3.4331    2.5925 H       1  LIG1        0.0244
     33 H           0.7579    3.8412    3.2873 H       1  LIG1        0.0244
     34 H           1.7116    2.8169    3.8472 H       1  LIG1        0.0244
     35 H           0.9397    3.3530    6.0871 H       1  LIG1        0.1386
@<TRIPOS>BOND
     1    30    19    1
     2    32    20    1
     3    31    19    1
     4    19    29    1
     5    19    17    1
     6    33    20    1
     7    20    34    1
     8    20    17    1
     9    28    18    1
    10    17    18    1
    11    17     1    1
    12    18    27    1
    13    18    26    1
    14     2     1    1
    15     1     3    1
    16    35     3    1
    17     3     9    1
    18    25    16    1
    19     9    10    1
    20     9    11    1
    21     9     8    1
    22     5     8    1
    23     7     8    1
    24    10     4    3
    25    16    11   ar
    26    16    15   ar
    27    11    12   ar
    28     8     6    1
    29    24    15    1
    30    15    14   ar
    31    12    21    1
    32    12    13   ar
    33    14    13   ar
    34    14    23    1
    35    13    22    1
