@<TRIPOS>MOLECULE
?
 54 55 0 0 0
SMALL
GASTEIGER

@<TRIPOS>ATOM
      1 I           7.4383    2.6186   12.3066 I       1  LIG1        0.0000
      2 N           6.3460    3.7212    7.5437 N.4     2  LIG2        0.2556
      3 C           5.6885    5.0945    7.6161 C.3     2  LIG2        0.0292
      4 C           6.2415    6.0572    8.6535 C.3     2  LIG2        0.0141
      5 C           5.8093    5.8366   10.1083 C.3     2  LIG2       -0.0409
      6 C           6.2299    7.0426   10.9533 C.3     2  LIG2       -0.0343
      7 C           7.6429    7.4514   10.6702 C.2     2  LIG2       -0.0876
      8 C           8.3269    7.0577    9.6086 C.2     2  LIG2       -0.0842
      9 C           7.7579    6.1873    8.5263 C.3     2  LIG2       -0.0093
     10 C           8.4026    4.7997    8.5195 C.3     2  LIG2        0.0015
     11 C           7.8857    3.8992    7.4085 C.3     2  LIG2        0.0080
     12 C           5.8297    3.0377    6.2753 C.3     2  LIG2       -0.0106
     13 C           4.3468    2.9972    6.1645 C.2     2  LIG2       -0.0465
     14 C           3.6890    3.5894    5.1902 C.2     2  LIG2       -0.0977
     15 C           5.9723    2.8612    8.7173 C.3     2  LIG2       -0.0399
     16 C           8.6203    2.5862    7.2752 C.ar    2  LIG2        0.0040
     17 C           9.0807    1.8864    8.4017 C.ar    2  LIG2       -0.0078
     18 C           9.8069    0.7250    8.2652 C.ar    2  LIG2        0.1619
     19 C          10.0762    0.1961    6.9744 C.ar    2  LIG2        0.1615
     20 C           9.6264    0.8844    5.8727 C.ar    2  LIG2       -0.0159
     21 C           8.9119    2.0689    6.0181 C.ar    2  LIG2       -0.0496
     22 O          10.3124   -0.0140    9.2933 O.3     2  LIG2       -0.4914
     23 C          10.1998    0.5384   10.6006 C.3     2  LIG2        0.0790
     24 O          10.7915   -0.9672    6.9591 O.3     2  LIG2       -0.4915
     25 C          10.9594   -1.6202    5.6907 C.3     2  LIG2        0.0790
     26 H           5.8210    5.4190    6.7843 H       2  LIG2        0.0912
     27 H           5.8210    6.9047    8.4004 H       2  LIG2        0.0363
     28 H           6.2430    5.0834   10.4967 H       2  LIG2        0.0273
     29 H           4.7732    5.6766   10.1782 H       2  LIG2        0.0273
     30 H           6.0975    6.8664   11.8970 H       2  LIG2        0.0307
     31 H           5.6609    7.7106   10.7141 H       2  LIG2        0.0307
     32 H           7.9893    7.9881   11.2044 H       2  LIG2        0.0569
     33 H           9.2117    7.2619    9.4553 H       2  LIG2        0.0572
     34 H           7.9311    6.5308    7.6505 H       2  LIG2        0.0350
     35 H           8.3094    4.3904    9.3356 H       2  LIG2        0.0329
     36 H           9.2990    4.8607    8.4358 H       2  LIG2        0.0329
     37 H           7.9616    4.3439    6.5670 H       2  LIG2        0.0905
     38 H           6.2139    2.1204    6.2586 H       2  LIG2        0.0862
     39 H           6.2430    3.4532    5.5929 H       2  LIG2        0.0862
     40 H           4.8896    2.8549    8.9110 H       2  LIG2        0.0779
     41 H           6.2284    1.9775    8.5605 H       2  LIG2        0.0779
     42 H           6.3929    3.1756    9.4350 H       2  LIG2        0.0779
     43 H           8.9002    2.1935    9.2109 H       2  LIG2        0.0660
     44 H           9.8520    0.5650    4.9812 H       2  LIG2        0.0655
     45 H           8.6150    2.5276    5.3098 H       2  LIG2        0.0623
     46 H          10.5941   -0.1329   11.2398 H       2  LIG2        0.0660
     47 H          10.6524    1.4457   10.7174 H       2  LIG2        0.0660
     48 H           9.2990    0.5567   10.7899 H       2  LIG2        0.0660
     49 H          11.3509   -2.4760    5.9485 H       2  LIG2        0.0660
     50 H          10.1430   -1.8113    5.2913 H       2  LIG2        0.0660
     51 H          11.4382   -0.9655    5.0756 H       2  LIG2        0.0660
     52 H           2.7359    3.5230    5.1228 H       2  LIG2        0.0534
     53 H           4.1620    4.0713    4.5161 H       2  LIG2        0.0534
     54 H           3.9146    2.5259    6.9427 H       2  LIG2        0.0619
@<TRIPOS>BOND
     1    53    14    1
     2    44    20    1
     3    51    25    1
     4    52    14    1
     5    14    13    2
     6    50    25    1
     7    45    21    1
     8    39    12    1
     9    25    49    1
    10    25    24    1
    11    20    21   ar
    12    20    19   ar
    13    21    16   ar
    14    13    12    1
    15    13    54    1
    16    38    12    1
    17    12     2    1
    18    37    11    1
    19    26     3    1
    20    24    19    1
    21    19    18   ar
    22    16    11    1
    23    16    17   ar
    24    11     2    1
    25    11    10    1
    26     2     3    1
    27     2    15    1
    28     3     4    1
    29    34     9    1
    30    18    17   ar
    31    18    22    1
    32    27     4    1
    33    17    43    1
    34    36    10    1
    35    10     9    1
    36    10    35    1
    37     9     4    1
    38     9     8    1
    39    41    15    1
    40     4     5    1
    41    15    40    1
    42    15    42    1
    43    22    23    1
    44    33     8    1
    45     8     7    2
    46     5    29    1
    47     5    28    1
    48     5     6    1
    49    23    47    1
    50    23    48    1
    51    23    46    1
    52     7     6    1
    53     7    32    1
    54    31     6    1
    55     6    30    1
