@<TRIPOS>MOLECULE
?
 41 42 0 0 0
SMALL
GASTEIGER

@<TRIPOS>ATOM
      1 F           2.9007   -1.2478    1.3433 F       1  LIG1       -0.2055
      2 O           8.1002   -0.2335   -3.0573 O.2     1  LIG1       -0.2962
      3 O           6.0525    3.3278   -3.9570 O.2     1  LIG1       -0.2497
      4 O           7.9176    2.8095   -2.7954 O.3     1  LIG1       -0.4672
      5 O           7.4965    3.2834    0.5437 O.2     1  LIG1       -0.2265
      6 O           5.4398    4.2687    0.6604 O.3     1  LIG1       -0.4537
      7 N           5.6792    2.4850   -0.6299 N.am    1  LIG1       -0.2728
      8 H           4.8721    2.5441   -0.7011 H       1  LIG1        0.1527
      9 C           6.3290    1.2675   -1.1409 C.3     1  LIG1        0.0741
     10 H           7.3038    1.4322   -0.9339 H       1  LIG1        0.0564
     11 C           6.1401    1.2290   -2.6943 C.3     1  LIG1        0.1476
     12 C           6.9595    0.0587   -3.3496 C.2     1  LIG1        0.1523
     13 C           6.0824   -0.6443   -4.3697 C.3     1  LIG1        0.0071
     14 H           6.6035   -1.0007   -5.1161 H       1  LIG1        0.0342
     15 H           5.7607   -1.5361   -3.8950 H       1  LIG1        0.0342
     16 C           4.8945    0.3058   -4.5938 C.3     1  LIG1       -0.0449
     17 H           5.1462    0.9620   -5.2795 H       1  LIG1        0.0270
     18 H           4.0664   -0.1994   -4.8575 H       1  LIG1        0.0270
     19 C           4.7007    0.9722   -3.2106 C.3     1  LIG1       -0.0279
     20 H           4.2098    1.7621   -3.1707 H       1  LIG1        0.0281
     21 H           4.2625    0.4109   -2.6207 H       1  LIG1        0.0281
     22 C           6.6724    2.5719   -3.2412 C.2     1  LIG1        0.3225
     23 C           8.4626    4.1167   -3.1100 C.3     1  LIG1        0.0817
     24 H           7.9495    4.8030   -2.7133 H       1  LIG1        0.0661
     25 H           9.2956    4.0790   -2.8453 H       1  LIG1        0.0661
     26 H           8.4177    4.2627   -4.1019 H       1  LIG1        0.0661
     27 C           5.8309    0.0059   -0.4336 C.ar    1  LIG1       -0.0229
     28 C           6.6700   -1.1151   -0.3135 C.ar    1  LIG1       -0.0566
     29 H           7.5525   -1.0720   -0.6521 H       1  LIG1        0.0621
     30 C           6.2230   -2.2751    0.3284 C.ar    1  LIG1       -0.0587
     31 H           6.8278   -2.9611    0.3894 H       1  LIG1        0.0619
     32 C           4.9439   -2.3415    0.8763 C.ar    1  LIG1       -0.0264
     33 H           4.6429   -3.0565    1.2988 H       1  LIG1        0.0646
     34 C           4.1467   -1.2189    0.7725 C.ar    1  LIG1        0.1237
     35 C           4.5490   -0.0499    0.1315 C.ar    1  LIG1       -0.0215
     36 H           3.9504    0.7566    0.1198 H       1  LIG1        0.0649
     37 C           6.3152    3.3338    0.2229 C.2     1  LIG1        0.4005
     38 C           5.9743    5.2332    1.5915 C.3     1  LIG1        0.0833
     39 H           6.2913    4.6277    2.3539 H       1  LIG1        0.0661
     40 H           6.6620    5.7892    1.1980 H       1  LIG1        0.0661
     41 H           5.2672    5.6031    2.0258 H       1  LIG1        0.0661
@<TRIPOS>BOND
     1    17    16    1
     2    14    13    1
     3    18    16    1
     4    16    13    1
     5    16    19    1
     6    13    15    1
     7    13    12    1
     8    26    23    1
     9     3    22    2
    10    12     2    2
    11    12    11    1
    12    22     4    1
    13    22    11    1
    14    19    20    1
    15    19    11    1
    16    19    21    1
    17    23    25    1
    18    23     4    1
    19    23    24    1
    20    11     9    1
    21     9    10    1
    22     9     7    1
    23     9    27    1
    24     8     7    1
    25    29    28    1
    26     7    37   am
    27    27    28   ar
    28    27    35   ar
    29    28    30   ar
    30    36    35    1
    31    35    34   ar
    32    37     5    2
    33    37     6    1
    34    30    31    1
    35    30    32   ar
    36     6    38    1
    37    34    32   ar
    38    34     1    1
    39    32    33    1
    40    40    38    1
    41    38    41    1
    42    38    39    1
