@<TRIPOS>MOLECULE
?
 88 92 0 0 0
SMALL
GASTEIGER

@<TRIPOS>ATOM
      1 C           0.3906    0.3559    3.1543 C.3     1  LIG1        0.0975
      2 H           1.0096    1.0664    3.4569 H       1  LIG1        0.0660
      3 O           0.4409    0.2758    1.7382 O.3     1  LIG1       -0.3856
      4 H          -0.1788    0.7236    1.4139 H       1  LIG1        0.2103
      5 C          -0.9924    0.6677    3.6598 C.ar    1  LIG1       -0.0176
      6 C          -1.1627    1.5089    4.7394 C.ar    1  LIG1       -0.0561
      7 H          -0.4117    1.9078    5.1409 H       1  LIG1        0.0621
      8 C          -2.4274    1.7733    5.2369 C.ar    1  LIG1       -0.0614
      9 H          -2.5288    2.3510    5.9718 H       1  LIG1        0.0618
     10 C          -3.5257    1.2021    4.6699 C.ar    1  LIG1       -0.0617
     11 H          -4.3827    1.3884    5.0075 H       1  LIG1        0.0618
     12 C          -3.3731    0.3594    3.6099 C.ar    1  LIG1       -0.0614
     13 H          -4.1291   -0.0415    3.2218 H       1  LIG1        0.0618
     14 C          -2.1162    0.0874    3.0987 C.ar    1  LIG1       -0.0561
     15 H          -2.0253   -0.4951    2.3655 H       1  LIG1        0.0621
     16 C           0.8782   -0.9696    3.6771 C.3     1  LIG1        0.0612
     17 H           0.3785   -1.7606    3.3537 H       1  LIG1        0.0511
     18 N           1.2974   -1.0254    5.0616 N.3     1  LIG1       -0.2815
     19 C           0.8847   -2.1566    5.9333 C.3     1  LIG1        0.0146
     20 C          -0.4195   -1.7210    6.5532 C.3     1  LIG1       -0.0471
     21 H          -0.3135   -0.8396    6.9440 H       1  LIG1        0.0247
     22 H          -0.6762   -2.3527    7.2443 H       1  LIG1        0.0247
     23 H          -1.1083   -1.6914    5.8717 H       1  LIG1        0.0247
     24 C           1.9668   -2.2745    6.9810 C.3     1  LIG1       -0.0471
     25 H           2.8082   -2.4999    6.5532 H       1  LIG1        0.0247
     26 H           1.7292   -2.9690    7.6144 H       1  LIG1        0.0247
     27 H           2.0587   -1.4300    7.4476 H       1  LIG1        0.0247
     28 C           0.7461   -3.4998    5.2404 C.3     1  LIG1       -0.0471
     29 H           0.0518   -3.4451    4.5642 H       1  LIG1        0.0247
     30 H           0.5085   -4.1774    5.8923 H       1  LIG1        0.0247
     31 H           1.5882   -3.7359    4.8200 H       1  LIG1        0.0247
     32 C           2.3149   -1.2212    4.0398 C.3     1  LIG1        0.0548
     33 H           2.6116   -2.1588    3.9256 H       1  LIG1        0.0529
     34 C           3.3951   -0.2058    3.9011 C.ar    1  LIG1       -0.0286
     35 C           3.5426    0.8310    4.8022 C.ar    1  LIG1       -0.0570
     36 H           2.9393    0.9210    5.5174 H       1  LIG1        0.0621
     37 C           4.5815    1.7395    4.6516 C.ar    1  LIG1       -0.0615
     38 H           4.6781    2.4445    5.2648 H       1  LIG1        0.0618
     39 C           5.4648    1.6147    3.6158 C.ar    1  LIG1       -0.0617
     40 H           6.1643    2.2350    3.5157 H       1  LIG1        0.0618
     41 C           5.3279    0.5893    2.7287 C.ar    1  LIG1       -0.0615
     42 H           5.9380    0.5020    2.0192 H       1  LIG1        0.0618
     43 C           4.3031   -0.3182    2.8661 C.ar    1  LIG1       -0.0570
     44 H           4.2195   -1.0231    2.2495 H       1  LIG1        0.0621
     45 C          11.0035    2.7182   -0.2157 C.3     2  LIG2        0.0975
     46 H          11.6072    2.8842   -0.9834 H       2  LIG2        0.0660
     47 O          11.0776    1.3399    0.1490 O.3     2  LIG2       -0.3856
     48 H          11.3228    0.8933   -0.5068 H       2  LIG2        0.2103
     49 C           9.5982    3.0975   -0.6002 C.ar    2  LIG2       -0.0176
     50 C           8.5082    2.6558    0.1284 C.ar    2  LIG2       -0.0561
     51 H           8.6332    2.0774    0.8595 H       2  LIG2        0.0621
     52 C           7.2218    3.0717   -0.2238 C.ar    2  LIG2       -0.0614
     53 H           6.4826    2.7751    0.2764 H       2  LIG2        0.0618
     54 C           7.0283    3.9066   -1.2913 C.ar    2  LIG2       -0.0617
     55 H           6.1596    4.1774   -1.5267 H       2  LIG2        0.0618
     56 C           8.0992    4.3417   -2.0089 C.ar    2  LIG2       -0.0614
     57 H           7.9677    4.9183   -2.7388 H       2  LIG2        0.0618
     58 C           9.3751    3.9430   -1.6741 C.ar    2  LIG2       -0.0561
     59 H          10.1051    4.2484   -2.1828 H       2  LIG2        0.0621
     60 C          11.4686    3.5249    0.9624 C.3     2  LIG2        0.0612
     61 H          10.9795    3.3689    1.8079 H       2  LIG2        0.0511
     62 N          11.8286    4.9010    0.6907 N.3     2  LIG2       -0.2815
     63 C          11.3684    6.0031    1.5836 C.3     2  LIG2        0.0146
     64 C          12.2232    7.1957    1.2328 C.3     2  LIG2       -0.0471
     65 H          13.1517    6.9975    1.4314 H       2  LIG2        0.0247
     66 H          11.9382    7.9635    1.7539 H       2  LIG2        0.0247
     67 H          12.1306    7.3940    0.2875 H       2  LIG2        0.0247
     68 C          11.4904    5.7216    3.0607 C.3     2  LIG2       -0.0471
     69 H          10.9801    4.9270    3.2806 H       2  LIG2        0.0247
     70 H          11.1451    6.4764    3.5634 H       2  LIG2        0.0247
     71 H          12.4233    5.5814    3.2869 H       2  LIG2        0.0247
     72 C           9.9379    6.2789    1.1947 C.3     2  LIG2       -0.0471
     73 H           9.8946    6.4833    0.2462 H       2  LIG2        0.0247
     74 H           9.6035    7.0339    1.7030 H       2  LIG2        0.0247
     75 H           9.3960    5.4966    1.3805 H       2  LIG2        0.0247
     76 C          12.8885    3.9835    1.1092 C.3     2  LIG2        0.0548
     77 H          13.1932    4.0995    2.0446 H       2  LIG2        0.0529
     78 C          13.9612    3.6411    0.1401 C.ar    2  LIG2       -0.0286
     79 C          14.0088    4.1824   -1.1262 C.ar    2  LIG2       -0.0570
     80 H          13.3532    4.8023   -1.3933 H       2  LIG2        0.0621
     81 C          15.0155    3.8220   -2.0112 C.ar    2  LIG2       -0.0615
     82 H          15.0381    4.1912   -2.8755 H       2  LIG2        0.0618
     83 C          15.9809    2.9211   -1.6185 C.ar    2  LIG2       -0.0617
     84 H          16.6657    2.6764   -2.2146 H       2  LIG2        0.0618
     85 C          15.9452    2.3858   -0.3686 C.ar    2  LIG2       -0.0615
     86 H          16.6069    1.7727   -0.1049 H       2  LIG2        0.0618
     87 C          14.9449    2.7365    0.5155 C.ar    2  LIG2       -0.0570
     88 H          14.9295    2.3614    1.3774 H       2  LIG2        0.0621
@<TRIPOS>BOND
     1    82    81    1
     2    57    56    1
     3    84    83    1
     4    59    58    1
     5    81    83   ar
     6    81    79   ar
     7    56    58   ar
     8    56    54   ar
     9    58    49   ar
    10    83    85   ar
    11    55    54    1
    12    80    79    1
    13    54    52   ar
    14    79    78   ar
    15    46    45    1
    16    49    45    1
    17    49    50   ar
    18    48    47    1
    19    85    86    1
    20    85    87   ar
    21    52    50   ar
    22    52    53    1
    23    45    47    1
    24    45    60    1
    25    50    51    1
    26    78    87   ar
    27    78    76    1
    28    73    72    1
    29    67    64    1
    30    87    88    1
    31    62    60    1
    32    62    76    1
    33    62    63    1
    34    60    76    1
    35    60    61    1
    36    76    77    1
    37    72    75    1
    38    72    63    1
    39    72    74    1
    40    64    65    1
    41    64    63    1
    42    64    66    1
    43     4     3    1
    44    63    68    1
    45     3     1    1
    46    42    41    1
    47    44    43    1
    48    15    14    1
    49    41    43   ar
    50    41    39   ar
    51    43    34   ar
    52    68    69    1
    53    68    71    1
    54    68    70    1
    55    14    12   ar
    56    14     5   ar
    57     1     2    1
    58     1     5    1
    59     1    16    1
    60    13    12    1
    61    17    16    1
    62    40    39    1
    63    12    10   ar
    64    39    37   ar
    65     5     6   ar
    66    16    32    1
    67    16    18    1
    68    34    32    1
    69    34    35   ar
    70    33    32    1
    71    32    18    1
    72    29    28    1
    73    37    35   ar
    74    37    38    1
    75    10    11    1
    76    10     8   ar
    77     6     7    1
    78     6     8   ar
    79    35    36    1
    80    31    28    1
    81    18    19    1
    82     8     9    1
    83    28    30    1
    84    28    19    1
    85    23    20    1
    86    19    20    1
    87    19    24    1
    88    20    21    1
    89    20    22    1
    90    25    24    1
    91    24    27    1
    92    24    26    1
