@<TRIPOS>MOLECULE
4-(4-Methoxyphenyl)-5,6-dimethyl-3,4-dihydro-1H-pyrimidine-2-thione
 33 34 0 0 0
SMALL
GASTEIGER

@<TRIPOS>ATOM
      1 S           2.0959    3.5225   17.6009 S.2     1  LIG1       -0.0185
      2 O          -4.4997    5.9041   13.6827 O.3     1  LIG1       -0.4951
      3 N           2.7788    4.6621   15.2948 N.am    1  LIG1       -0.3006
      4 H           3.3645    4.0677   15.2874 H       1  LIG1        0.1535
      5 N           1.1557    5.7231   16.4826 N.am    1  LIG1       -0.3158
      6 H           0.6966    5.7092   17.1906 H       1  LIG1        0.1486
      7 C           2.7447    5.6410   14.2828 C.2     1  LIG1        0.0075
      8 C          -0.5781    6.4901   14.9378 C.ar    1  LIG1       -0.0229
      9 C          -3.1838    6.0490   14.0532 C.ar    1  LIG1        0.1201
     10 C           1.8597    6.6223   14.3293 C.2     1  LIG1       -0.0315
     11 C          -1.5635    7.4533   15.1069 C.ar    1  LIG1       -0.0530
     12 H          -1.3486    8.2657   15.5285 H       1  LIG1        0.0622
     13 C           2.0078    4.7050   16.3932 C.2     1  LIG1        0.1350
     14 C           0.8401    6.6971   15.4377 C.3     1  LIG1        0.0702
     15 H           0.8927    7.6006   15.8393 H       1  LIG1        0.0596
     16 C          -0.9392    5.3067   14.3205 C.ar    1  LIG1       -0.0530
     17 H          -0.2868    4.6410   14.2014 H       1  LIG1        0.0622
     18 C          -2.2174    5.0683   13.8755 C.ar    1  LIG1       -0.0196
     19 H          -2.4340    4.2547   13.4570 H       1  LIG1        0.0654
     20 C          -2.8528    7.2379   14.6675 C.ar    1  LIG1       -0.0196
     21 H          -3.5066    7.9030   14.7873 H       1  LIG1        0.0654
     22 C          -4.8630    4.7406   12.9553 C.3     1  LIG1        0.0788
     23 H          -4.3191    4.6760   12.1542 H       1  LIG1        0.0660
     24 H          -5.7989    4.7943   12.7060 H       1  LIG1        0.0660
     25 H          -4.7205    3.9560   13.5071 H       1  LIG1        0.0660
     26 C           3.7816    5.4231   13.2168 C.3     1  LIG1       -0.0264
     27 H           3.6097    6.0200   12.4714 H       1  LIG1        0.0290
     28 H           3.7415    4.5034   12.9100 H       1  LIG1        0.0290
     29 H           4.6619    5.6048   13.5800 H       1  LIG1        0.0290
     30 C           1.7650    7.7177   13.3144 C.3     1  LIG1       -0.0400
     31 H           2.6136    7.8064   12.8533 H       1  LIG1        0.0276
     32 H           1.5494    8.5529   13.7596 H       1  LIG1        0.0276
     33 H           1.0691    7.5046   12.6737 H       1  LIG1        0.0276
@<TRIPOS>BOND
     1    23    22    1
     2    27    26    1
     3    33    30    1
     4    24    22    1
     5    31    30    1
     6    28    26    1
     7    22    25    1
     8    22     2    1
     9    26    29    1
    10    26     7    1
    11    30    32    1
    12    30    10    1
    13    19    18    1
    14     2     9    1
    15    18     9   ar
    16    18    16   ar
    17     9    20   ar
    18    17    16    1
    19     7    10    2
    20     7     3    1
    21    16     8   ar
    22    10    14    1
    23    20    21    1
    24    20    11   ar
    25     8    11   ar
    26     8    14    1
    27    11    12    1
    28     4     3    1
    29     3    13    1
    30    14    15    1
    31    14     5    1
    32    13     5    1
    33    13     1    2
    34     5     6    1
