@<TRIPOS>MOLECULE
C20 H16 Br2 O4
 21 21 0 0 0
SMALL
GASTEIGER

@<TRIPOS>ATOM
      1 BR          8.0233   -5.1187    9.4072 Br      1  LIG1       -0.0503
      2 O           3.5216    0.3836   14.5481 O.2     1  LIG1       -0.2505
      3 O           5.3674   -0.5876   13.7722 O.3     1  LIG1       -0.4597
      4 C           4.6929    0.1505   14.6529 C.2     1  LIG1        0.3116
      5 C           5.5880    0.5584   15.8150 C.3     1  LIG1        0.0729
      6 C           5.1408    1.9084   16.3290 C.3     1  LIG1       -0.0196
      7 C           4.6244   -1.1169   12.6559 C.3     1  LIG1        0.1175
      8 C           5.4845   -2.0978   11.9063 C.ar    1  LIG1       -0.0102
      9 C           5.0873   -2.5008   10.6492 C.ar    1  LIG1       -0.0543
     10 C           5.8130   -3.4235    9.9093 C.ar    1  LIG1       -0.0474
     11 C           6.9939   -3.9091   10.4462 C.ar    1  LIG1        0.0179
     12 C           7.4089   -3.5157   11.6902 C.ar    1  LIG1       -0.0474
     13 C           6.6720   -2.6320   12.4039 C.ar    1  LIG1       -0.0543
     14 H           6.4900    0.6114   15.5204 H       1  LIG1        0.0424
     15 H           4.2373    2.0036   16.6138 H       1  LIG1        0.0315
     16 H           3.8551   -1.5661   12.9768 H       1  LIG1        0.0749
     17 H           4.3630   -0.4079   12.0798 H       1  LIG1        0.0749
     18 H           4.2761   -2.1536   10.2924 H       1  LIG1        0.0622
     19 H           5.5211   -3.7090    9.0516 H       1  LIG1        0.0629
     20 H           8.2149   -3.8702   12.0438 H       1  LIG1        0.0629
     21 H           6.9585   -2.3673   13.2681 H       1  LIG1        0.0622
@<TRIPOS>BOND
     1    19    10    1
     2     1    11    1
     3    10    11   ar
     4    10     9   ar
     5    18     9    1
     6    11    12   ar
     7     9     8   ar
     8    12    20    1
     9    12    13   ar
    10     8    13   ar
    11     8     7    1
    12    17     7    1
    13    13    21    1
    14     7    16    1
    15     7     3    1
    16     3     4    1
    17     2     4    2
    18     4     5    1
    19    14     5    1
    20     5     6    1
    21     6    15    1
