@<TRIPOS>MOLECULE
?
 50 53 0 0 0
SMALL
GASTEIGER

@<TRIPOS>ATOM
      1 O           4.4629    6.8834    2.0529 O.2     1  LIG1       -0.4086
      2 O           3.2687    7.0503    0.1874 O.2     1  LIG1       -0.4490
      3 N           5.5555    5.9966    5.0717 N.am    1  LIG1       -0.2615
      4 N           4.4205    5.0873    0.6865 N.2     1  LIG1       -0.0971
      5 O           5.4702    2.6746    1.1566 O.3     1  LIG1       -0.4493
      6 O           6.1258    3.3208    3.2320 O.2     1  LIG1       -0.2242
      7 N           5.1978    4.7797    1.8225 N.am    1  LIG1       -0.0968
      8 O           3.5224    5.2169    4.3076 O.2     1  LIG1       -0.2684
      9 C           6.6323    6.4232    3.0807 C.ar    1  LIG1        0.0473
     10 C           6.7475    6.4581    4.4757 C.ar    1  LIG1        0.0460
     11 C           5.6272    3.5499    2.1572 C.2     1  LIG1        0.4268
     12 C           4.0460    6.2755    0.9175 C.2     1  LIG1        0.4090
     13 C           5.2793    5.9077    2.7427 C.3     1  LIG1        0.3110
     14 C           4.6367    5.6296    4.1370 C.2     1  LIG1        0.2904
     15 C           5.2662    5.9962    6.5148 C.3     1  LIG1        0.0450
     16 H           6.0874    5.8330    7.0041 H       1  LIG1        0.0518
     17 H           4.6499    5.2738    6.7160 H       1  LIG1        0.0518
     18 C           4.6683    7.2973    6.9738 C.ar    1  LIG1       -0.0297
     19 C           7.6631    6.8315    2.2824 C.ar    1  LIG1       -0.0508
     20 H           7.5806    6.8145    1.3561 H       1  LIG1        0.0623
     21 C           7.9100    6.8856    5.0802 C.ar    1  LIG1       -0.0398
     22 H           7.9950    6.9047    6.0064 H       1  LIG1        0.0636
     23 C           8.9480    7.2885    4.2539 C.ar    1  LIG1       -0.0600
     24 H           9.7436    7.5777    4.6373 H       1  LIG1        0.0618
     25 C           2.7815    6.4555   -1.0648 C.3     1  LIG1        0.0914
     26 H           2.4666    5.5517   -0.9072 H       1  LIG1        0.0695
     27 H           3.4942    6.4234   -1.7216 H       1  LIG1        0.0695
     28 C           3.2968    7.4648    6.9434 C.ar    1  LIG1       -0.0571
     29 H           2.7551    6.7795    6.6243 H       1  LIG1        0.0621
     30 C           8.8373    7.2716    2.8812 C.ar    1  LIG1       -0.0612
     31 H           9.5500    7.5560    2.3549 H       1  LIG1        0.0618
     32 C           5.4617    8.3196    7.4553 C.ar    1  LIG1       -0.0571
     33 H           6.3864    8.2183    7.4851 H       1  LIG1        0.0621
     34 C           1.6734    7.3076   -1.5501 C.3     1  LIG1       -0.0305
     35 H           0.9767    7.3324   -0.8905 H       1  LIG1        0.0262
     36 H           1.3270    6.9468   -2.3692 H       1  LIG1        0.0262
     37 H           1.9989    8.1980   -1.7049 H       1  LIG1        0.0262
     38 C           2.7230    8.6430    7.3839 C.ar    1  LIG1       -0.0615
     39 H           1.7999    8.7519    7.3482 H       1  LIG1        0.0618
     40 C           5.8725    1.3198    1.4596 C.3     1  LIG1        0.0913
     41 H           5.1978    0.8898    2.0073 H       1  LIG1        0.0695
     42 H           6.7075    1.3260    1.9537 H       1  LIG1        0.0695
     43 C           3.5130    9.6477    7.8720 C.ar    1  LIG1       -0.0617
     44 H           3.1236   10.4319    8.1864 H       1  LIG1        0.0618
     45 C           4.8760    9.5037    7.8994 C.ar    1  LIG1       -0.0615
     46 H           5.4098   10.1975    8.2137 H       1  LIG1        0.0618
     47 C           6.0405    0.5842    0.2083 C.3     1  LIG1       -0.0305
     48 H           5.2074    0.5689   -0.2679 H       1  LIG1        0.0262
     49 H           6.3158   -0.3155    0.4000 H       1  LIG1        0.0262
     50 H           6.7085    1.0157   -0.3298 H       1  LIG1        0.0262
@<TRIPOS>BOND
     1    36    34    1
     2    27    25    1
     3    37    34    1
     4    34    25    1
     5    34    35    1
     6    25    26    1
     7    25     2    1
     8    50    47    1
     9    48    47    1
    10     2    12    1
    11    47    49    1
    12    47    40    1
    13     4    12    2
    14     4     7    1
    15    12     1    1
    16     5    40    1
    17     5    11    1
    18    20    19    1
    19    40    42    1
    20    40    41    1
    21     7    11   am
    22     7    13    1
    23     1    13    1
    24    11     6    2
    25    19    30   ar
    26    19     9   ar
    27    31    30    1
    28    13     9    1
    29    13    14    1
    30    30    23   ar
    31     9    10   ar
    32    14     8    2
    33    14     3   am
    34    23    24    1
    35    23    21   ar
    36    10     3    1
    37    10    21   ar
    38     3    15    1
    39    21    22    1
    40    15    17    1
    41    15    18    1
    42    15    16    1
    43    29    28    1
    44    28    18   ar
    45    28    38   ar
    46    18    32   ar
    47    39    38    1
    48    38    43   ar
    49    32    33    1
    50    32    45   ar
    51    43    45   ar
    52    43    44    1
    53    45    46    1
