@<TRIPOS>MOLECULE
?
 41 45 0 0 0
SMALL
GASTEIGER

@<TRIPOS>ATOM
      1 C           4.3580   -1.3324   10.0846 C.3     1  LIG1        0.1082
      2 C           5.5596   -1.8194    9.2951 C.3     1  LIG1        0.1528
      3 C           5.7468   -0.8165   10.4012 C.3     1  LIG1        0.0271
      4 C           6.1753    0.6077   10.0905 C.3     1  LIG1       -0.0356
      5 C           5.1221    1.4669    9.4159 C.3     1  LIG1        0.0135
      6 C           5.5501    2.4031    8.2994 C.3     1  LIG1       -0.0409
      7 C           4.3693    2.5621    7.3178 C.3     1  LIG1       -0.0370
      8 C           4.7617    2.2398    5.8798 C.3     1  LIG1       -0.0499
      9 C           3.5575    2.3212    4.9438 C.3     1  LIG1       -0.0528
     10 C           2.3705    1.5017    5.4531 C.3     1  LIG1       -0.0528
     11 C           2.7014    0.6910    6.7131 C.3     1  LIG1       -0.0493
     12 C           3.2034    1.6271    7.8119 C.3     1  LIG1       -0.0291
     13 C           3.7131    0.9449    9.0905 C.3     1  LIG1        0.0182
     14 C           3.2935   -0.4719    9.4315 C.3     1  LIG1       -0.0113
     15 C           3.9396    1.9133   10.2326 C.3     1  LIG1        0.1311
     16 O           3.8878   -2.2303   11.0483 O.3     1  LIG1       -0.3732
     17 C           2.9350   -3.1693   10.5379 C.3     1  LIG1        0.0373
     18 CL          5.7998   -1.2773    7.6361 Cl      1  LIG1       -0.0975
     19 CL          6.1056   -3.4726    9.5227 Cl      1  LIG1       -0.0975
     20 CL          3.3490    3.5753   10.1500 Cl      1  LIG1       -0.0997
     21 CL          3.7835    1.3222   11.8849 Cl      1  LIG1       -0.0997
     22 H           6.1269   -1.1857   11.1820 H       1  LIG1        0.0359
     23 H           6.4579    1.0224   10.9258 H       1  LIG1        0.0276
     24 H           6.9651    0.5675    9.5144 H       1  LIG1        0.0276
     25 H           5.8551    3.2875    8.6884 H       1  LIG1        0.0274
     26 H           6.3165    1.9592    7.8517 H       1  LIG1        0.0274
     27 H           4.0357    3.5383    7.3262 H       1  LIG1        0.0304
     28 H           5.4878    2.8607    5.5832 H       1  LIG1        0.0268
     29 H           5.1390    1.2930    5.8597 H       1  LIG1        0.0268
     30 H           3.2858    3.3011    4.8147 H       1  LIG1        0.0265
     31 H           3.8000    2.0523    4.0533 H       1  LIG1        0.0265
     32 H           1.6244    2.1259    5.6933 H       1  LIG1        0.0265
     33 H           2.0849    0.9415    4.7584 H       1  LIG1        0.0265
     34 H           3.4108    0.0092    6.4966 H       1  LIG1        0.0268
     35 H           1.8745    0.1948    7.0281 H       1  LIG1        0.0268
     36 H           2.3800    2.2248    8.0576 H       1  LIG1        0.0310
     37 H           2.5631   -0.4534   10.0148 H       1  LIG1        0.0301
     38 H           2.9612   -0.9172    8.6334 H       1  LIG1        0.0301
     39 H           2.8006   -3.8125   11.2382 H       1  LIG1        0.0524
     40 H           3.2918   -3.6320    9.7694 H       1  LIG1        0.0524
     41 H           2.1424   -2.7380   10.3560 H       1  LIG1        0.0524
@<TRIPOS>BOND
     1    31     9    1
     2    33    10    1
     3    30     9    1
     4     9    10    1
     5     9     8    1
     6    10    32    1
     7    10    11    1
     8    28     8    1
     9    29     8    1
    10     8     7    1
    11    34    11    1
    12    11    35    1
    13    11    12    1
    14     7    27    1
    15     7    12    1
    16     7     6    1
    17    18     2    1
    18    12    36    1
    19    12    13    1
    20    26     6    1
    21     6    25    1
    22     6     5    1
    23    38    14    1
    24    13     5    1
    25    13    14    1
    26    13    15    1
    27     2    19    1
    28     2     1    1
    29     2     3    1
    30     5     4    1
    31     5    15    1
    32    14    37    1
    33    14     1    1
    34    24     4    1
    35    40    17    1
    36     1     3    1
    37     1    16    1
    38     4     3    1
    39     4    23    1
    40    20    15    1
    41    15    21    1
    42    41    17    1
    43     3    22    1
    44    17    16    1
    45    17    39    1
