@<TRIPOS>MOLECULE
4-(pent-1-enyl)-2,6-dimethoxyphenylpiridine-3-carboxylate
 45 46 0 0 0
SMALL
GASTEIGER

@<TRIPOS>ATOM
      1 C           1.6256   14.7884    5.0921 C.ar    1  LIG1        0.2146
      2 C           2.4607   13.9555    5.8374 C.ar    1  LIG1        0.1665
      3 C           2.9148   14.3743    7.0816 C.ar    1  LIG1       -0.0089
      4 H           3.4678   13.8126    7.6070 H       1  LIG1        0.0661
      5 C           2.5365   15.6362    7.5707 C.ar    1  LIG1       -0.0182
      6 C           1.6878   16.4484    6.8237 C.ar    1  LIG1       -0.0089
      7 H           1.4170   17.3288    7.1543 H       1  LIG1        0.0661
      8 C           1.2243   16.0258    5.5779 C.ar    1  LIG1        0.1665
      9 C           3.0452   16.1520    8.8625 C.2     1  LIG1       -0.0583
     10 H           2.7977   17.0458    9.0379 H       1  LIG1        0.0620
     11 C           3.8778   15.5306    9.6903 C.2     1  LIG1       -0.0835
     12 H           4.1397   14.5932    9.5148 H       1  LIG1        0.0572
     13 C           4.4437   16.0949   10.9635 C.3     1  LIG1       -0.0347
     14 H           4.1966   17.1378   11.0427 H       1  LIG1        0.0307
     15 H           5.4814   16.0600   10.9861 H       1  LIG1        0.0307
     16 C           4.0277   15.3245   12.1923 C.3     1  LIG1       -0.0525
     17 H           4.3134   14.2748   12.0742 H       1  LIG1        0.0266
     18 H           2.9364   15.3681   12.2941 H       1  LIG1        0.0266
     19 C           4.6784   15.8874   13.4590 C.3     1  LIG1       -0.0650
     20 H           4.5527   16.8618   13.5326 H       1  LIG1        0.0230
     21 H           4.3141   15.4068   14.2601 H       1  LIG1        0.0230
     22 H           5.5595   15.7086   13.4841 H       1  LIG1        0.0230
     23 C           3.6605   11.9002    5.9442 C.3     1  LIG1        0.0790
     24 H           3.8143   11.1901    5.3839 H       1  LIG1        0.0660
     25 H           3.2137   11.6076    6.7663 H       1  LIG1        0.0660
     26 H           4.4410   12.3457    6.0549 H       1  LIG1        0.0660
     27 C          -0.0919   17.9891    5.2683 C.3     1  LIG1        0.0790
     28 H          -0.5698   17.8382    6.0711 H       1  LIG1        0.0660
     29 H           0.6330   18.6023    5.5294 H       1  LIG1        0.0660
     30 H          -0.6636   18.3311    4.5513 H       1  LIG1        0.0660
     31 C           0.1206   13.7541    3.6079 C.2     1  LIG1        0.3461
     32 C          -0.1343   13.5385    2.1617 C.ar    1  LIG1        0.0774
     33 C          -1.3595   13.0018    1.7736 C.ar    1  LIG1        0.0415
     34 H          -1.9795   12.7395    2.4656 H       1  LIG1        0.0838
     35 C          -0.8446   13.2131   -0.4341 C.ar    1  LIG1        0.0276
     36 H          -1.1585   13.0933   -1.3177 H       1  LIG1        0.0829
     37 C           0.4094   13.7185   -0.1528 C.ar    1  LIG1       -0.0428
     38 H           0.9567   13.9470   -0.8165 H       1  LIG1        0.0633
     39 C           0.7760   13.8899    1.1657 C.ar    1  LIG1       -0.0449
     40 H           1.6371   14.2418    1.3419 H       1  LIG1        0.0627
     41 N          -1.7312   12.8506    0.5020 N.ar    1  LIG1       -0.2624
     42 O           1.2898   14.4286    3.7825 O.3     1  LIG1       -0.4148
     43 O          -0.5973   13.4293    4.5084 O.2     1  LIG1       -0.2445
     44 O           2.7847   12.7787    5.2345 O.3     1  LIG1       -0.4913
     45 O           0.4001   16.7475    4.7644 O.3     1  LIG1       -0.4913
@<TRIPOS>BOND
     1    36    35    1
     2    38    37    1
     3    35    37   ar
     4    35    41   ar
     5    37    39   ar
     6    41    33   ar
     7    39    40    1
     8    39    32   ar
     9    33    32   ar
    10    33    34    1
    11    32    31    1
    12    31    42    1
    13    31    43    2
    14    42     1    1
    15    30    27    1
    16    45    27    1
    17    45     8    1
    18     1     8   ar
    19     1     2   ar
    20    44     2    1
    21    44    23    1
    22    27    29    1
    23    27    28    1
    24    24    23    1
    25     8     6   ar
    26     2     3   ar
    27    23    26    1
    28    23    25    1
    29     6     7    1
    30     6     5   ar
    31     3     5   ar
    32     3     4    1
    33     5     9    1
    34     9    10    1
    35     9    11    2
    36    12    11    1
    37    11    13    1
    38    13    15    1
    39    13    14    1
    40    13    16    1
    41    17    16    1
    42    16    18    1
    43    16    19    1
    44    19    22    1
    45    19    20    1
    46    19    21    1
