@<TRIPOS>MOLECULE
?
 51 54 0 0 0
SMALL
GASTEIGER

@<TRIPOS>ATOM
      1 S           4.7162    3.1807   11.3615 S.O2    1  LIG1        0.0085
      2 O           4.4855    3.4307    9.9669 O.2     1  LIG1       -0.1686
      3 O           5.6364    2.1433   11.7423 O.2     1  LIG1       -0.1686
      4 O           3.4645    6.1379   12.4951 O.2     1  LIG1       -0.2730
      5 O           5.8540    7.0619    8.7877 O.2     1  LIG1       -0.2749
      6 N           4.6348    6.5468   10.6077 N.am    1  LIG1       -0.2359
      7 C           5.3272    4.7111   12.1095 C.3     1  LIG1        0.1615
      8 H           5.3298    4.5910   13.0817 H       1  LIG1        0.0640
      9 C           4.4056    5.8497   11.7880 C.2     1  LIG1        0.2470
     10 C           5.7695    6.4035    9.8126 C.2     1  LIG1        0.2255
     11 C           6.8633    5.4601   10.2247 C.3     1  LIG1        0.0412
     12 H           6.8722    4.6917    9.6156 H       1  LIG1        0.0398
     13 C           6.7535    4.9558   11.6682 C.3     1  LIG1        0.0013
     14 H           7.2465    4.1123   11.7394 H       1  LIG1        0.0331
     15 C           7.4980    6.0139   12.4657 C.3     1  LIG1       -0.0473
     16 H           6.9463    6.7978   12.6102 H       1  LIG1        0.0269
     17 H           7.7877    5.6669   13.3247 H       1  LIG1        0.0269
     18 C           8.6853    6.3346   11.5739 C.3     1  LIG1       -0.0520
     19 H           8.9795    7.2478   11.7197 H       1  LIG1        0.0266
     20 H           9.4245    5.7382   11.7683 H       1  LIG1        0.0266
     21 C           8.2329    6.1557   10.1764 C.3     1  LIG1       -0.0416
     22 H           8.8688    5.6119    9.6852 H       1  LIG1        0.0273
     23 H           8.1562    7.0162    9.7351 H       1  LIG1        0.0273
     24 C           3.6027    7.5197   10.2289 C.3     1  LIG1        0.0474
     25 H           3.9540    8.1014    9.5368 H       1  LIG1        0.0519
     26 H           3.3878    8.0697   10.9986 H       1  LIG1        0.0519
     27 C           2.3474    6.8621    9.7285 C.ar    1  LIG1       -0.0296
     28 C           1.1620    6.9713   10.4417 C.ar    1  LIG1       -0.0571
     29 H           1.1357    7.4678   11.2271 H       1  LIG1        0.0621
     30 C           0.0193    6.3416    9.9833 C.ar    1  LIG1       -0.0615
     31 H          -0.7710    6.4206   10.4667 H       1  LIG1        0.0618
     32 C           0.0329    5.6065    8.8341 C.ar    1  LIG1       -0.0617
     33 H          -0.7415    5.1843    8.5373 H       1  LIG1        0.0618
     34 C           1.1968    5.4965    8.1235 C.ar    1  LIG1       -0.0615
     35 H           1.2126    5.0015    7.3368 H       1  LIG1        0.0618
     36 C           2.3426    6.1131    8.5648 C.ar    1  LIG1       -0.0571
     37 H           3.1263    6.0263    8.0736 H       1  LIG1        0.0621
     38 C           3.1737    2.8699   12.1473 C.ar    1  LIG1        0.0890
     39 C           3.1357    2.1394   13.3123 C.ar    1  LIG1       -0.0366
     40 H           3.9200    1.8110   13.6872 H       1  LIG1        0.0637
     41 C           1.9216    1.9001   13.9170 C.ar    1  LIG1       -0.0570
     42 H           1.8919    1.3974   14.6985 H       1  LIG1        0.0621
     43 C           0.7504    2.3927   13.3851 C.ar    1  LIG1       -0.0503
     44 C           0.8118    3.1154   12.2109 C.ar    1  LIG1       -0.0570
     45 H           0.0262    3.4431   11.8379 H       1  LIG1        0.0621
     46 C           2.0054    3.3617   11.5791 C.ar    1  LIG1       -0.0366
     47 H           2.0323    3.8474   10.7871 H       1  LIG1        0.0637
     48 C          -0.5634    2.1774   14.0983 C.3     1  LIG1       -0.0397
     49 H          -1.2735    2.5771   13.5900 H       1  LIG1        0.0278
     50 H          -0.5261    2.5817   14.9678 H       1  LIG1        0.0278
     51 H          -0.7274    1.2355   14.1902 H       1  LIG1        0.0278
@<TRIPOS>BOND
     1    35    34    1
     2    37    36    1
     3    34    36   ar
     4    34    32   ar
     5    33    32    1
     6    36    27   ar
     7     5    10    2
     8    32    30   ar
     9    25    24    1
    10    12    11    1
    11    22    21    1
    12    27    24    1
    13    27    28   ar
    14    23    21    1
    15    10    11    1
    16    10     6   am
    17     2     1    2
    18    30    28   ar
    19    30    31    1
    20    21    11    1
    21    21    18    1
    22    11    13    1
    23    24     6    1
    24    24    26    1
    25    28    29    1
    26     6     9   am
    27    47    46    1
    28     1     3    2
    29     1     7    1
    30     1    38    1
    31    18    19    1
    32    18    20    1
    33    18    15    1
    34    46    38   ar
    35    46    44   ar
    36    13    14    1
    37    13     7    1
    38    13    15    1
    39     9     7    1
    40     9     4    2
    41    45    44    1
    42     7     8    1
    43    38    39   ar
    44    44    43   ar
    45    15    16    1
    46    15    17    1
    47    39    40    1
    48    39    41   ar
    49    43    41   ar
    50    43    48    1
    51    49    48    1
    52    41    42    1
    53    48    51    1
    54    48    50    1
