@<TRIPOS>MOLECULE
?
 54 55 0 0 0
SMALL
GASTEIGER

@<TRIPOS>ATOM
      1 O           0.6739   11.7032    7.9303 O.3     1  LIG1       -0.4775
      2 H           0.8616   12.0074    8.6685 H       1  LIG1        0.2954
      3 O           1.8585   12.6337    2.2763 O.3     1  LIG1       -0.4775
      4 H           2.3690   13.1954    2.5871 H       1  LIG1        0.2954
      5 O           1.0863   10.6884    3.0415 O.2     1  LIG1       -0.2458
      6 O           1.6880   13.5361    7.1961 O.2     1  LIG1       -0.2458
      7 N           0.3526    8.8636    1.0347 N.3     2  LIG2       -0.2979
      8 N          -1.7984   10.5695    1.2892 N.3     2  LIG2       -0.2979
      9 C          -1.8678    9.5890    0.2022 C.3     2  LIG2        0.0260
     10 H          -2.3004    8.7894    0.5693 H       2  LIG2        0.0478
     11 C          -2.6728    9.9955   -1.0474 C.3     2  LIG2       -0.0359
     12 H          -3.5783   10.2298   -0.7905 H       2  LIG2        0.0281
     13 H          -2.2658   10.7740   -1.4589 H       2  LIG2        0.0281
     14 C          -2.7038    8.8438   -2.0480 C.3     2  LIG2       -0.0515
     15 H          -3.1563    8.0820   -1.6508 H       2  LIG2        0.0266
     16 H          -3.2032    9.1113   -2.8353 H       2  LIG2        0.0266
     17 C          -1.2980    8.4417   -2.4531 C.3     2  LIG2       -0.0515
     18 H          -0.8661    9.1854   -2.9027 H       2  LIG2        0.0266
     19 H          -1.3402    7.6981   -3.0748 H       2  LIG2        0.0266
     20 C          -0.4746    8.0366   -1.2282 C.3     2  LIG2       -0.0359
     21 H          -0.8648    7.2476   -0.8198 H       2  LIG2        0.0281
     22 H           0.4308    7.8190   -1.5009 H       2  LIG2        0.0281
     23 C          -0.4442    9.1710   -0.2180 C.3     2  LIG2        0.0260
     24 H          -0.0252    9.9426   -0.6533 H       2  LIG2        0.0478
     25 C          -2.9068   10.5472    2.2311 C.3     2  LIG2       -0.0007
     26 H          -2.9391    9.7069    2.7140 H       2  LIG2        0.0427
     27 H          -3.7540   10.6863    1.7792 H       2  LIG2        0.0427
     28 C          -2.5829   11.7051    3.1612 C.3     2  LIG2       -0.0390
     29 H          -1.9627   11.4315    3.8549 H       2  LIG2        0.0278
     30 H          -3.3870   12.0542    3.5758 H       2  LIG2        0.0278
     31 C          -1.9490   12.7359    2.2351 C.3     2  LIG2       -0.0390
     32 H          -1.1395   13.0971    2.6292 H       2  LIG2        0.0278
     33 H          -2.5645   13.4660    2.0654 H       2  LIG2        0.0278
     34 C          -1.6318   11.9877    0.9403 C.3     2  LIG2       -0.0007
     35 H          -2.2440   12.2447    0.2339 H       2  LIG2        0.0427
     36 H          -0.7232   12.1691    0.6509 H       2  LIG2        0.0427
     37 C           1.8074    8.5097    0.7945 C.3     2  LIG2       -0.0007
     38 H           1.9039    7.9822   -0.0135 H       2  LIG2        0.0427
     39 H           2.3474    9.3108    0.7120 H       2  LIG2        0.0427
     40 C           2.2076    7.7268    1.9814 C.3     2  LIG2       -0.0390
     41 H           2.8967    7.0859    1.7499 H       2  LIG2        0.0278
     42 H           2.5488    8.3132    2.6759 H       2  LIG2        0.0278
     43 C           1.0014    7.0436    2.4349 C.3     2  LIG2       -0.0390
     44 H           0.9855    7.0058    3.4038 H       2  LIG2        0.0278
     45 H           0.9863    6.1352    2.0932 H       2  LIG2        0.0278
     46 C          -0.1835    7.7933    1.9362 C.3     2  LIG2       -0.0007
     47 H          -0.6740    8.1863    2.6759 H       2  LIG2        0.0427
     48 H          -0.7793    7.2038    1.4478 H       2  LIG2        0.0427
     49 C           1.4802   11.8366    3.2080 C.2     1  LIG1        0.3298
     50 C           1.5398   12.4366    4.5757 C.2     1  LIG1        0.0291
     51 H           1.8995   13.2891    4.6652 H       1  LIG1        0.0691
     52 C           1.1154   11.8290    5.6500 C.2     1  LIG1        0.0291
     53 H           0.7500   10.9795    5.5620 H       1  LIG1        0.0691
     54 C           1.1891   12.4412    7.0232 C.2     1  LIG1        0.3298
@<TRIPOS>BOND
     1    19    17    1
     2    18    17    1
     3    16    14    1
     4    17    14    1
     5    17    20    1
     6    14    15    1
     7    14    11    1
     8    22    20    1
     9    13    11    1
    10    20    21    1
    11    20    23    1
    12    11    12    1
    13    11     9    1
    14    24    23    1
    15    23     9    1
    16    23     7    1
    17    38    37    1
    18     9    10    1
    19     9     8    1
    20    35    34    1
    21    36    34    1
    22    39    37    1
    23    37     7    1
    24    37    40    1
    25    34     8    1
    26    34    31    1
    27     7    46    1
    28     8    25    1
    29    48    46    1
    30    41    40    1
    31    27    25    1
    32    46    43    1
    33    46    47    1
    34    40    43    1
    35    40    42    1
    36    33    31    1
    37    45    43    1
    38    25    26    1
    39    25    28    1
    40    31    32    1
    41    31    28    1
    42     3     4    1
    43     3    49    1
    44    43    44    1
    45     5    49    2
    46    28    30    1
    47    28    29    1
    48    49    50    1
    49    50    51    1
    50    50    52    2
    51    53    52    1
    52    52    54    1
    53    54     6    2
    54    54     1    1
    55     1     2    1
