@<TRIPOS>MOLECULE
5,6-dichloro-2-[2-(phenylazo)phenyl] -1,3,2-Benzodioxaborole
 72 80 0 0 0
SMALL
GASTEIGER

@<TRIPOS>ATOM
      1 B           2.2626   -0.0974    4.7930 B       1  LIG1        0.0000
      2 C           1.2686    0.7644    3.9365 C.ar    1  LIG1        0.0000
      3 C           1.2210    2.0949    3.6061 C.ar    1  LIG1        0.0000
      4 H           1.8815    2.6916    3.9375 H       1  LIG1        0.0000
      5 C           0.1898    2.5726    2.7733 C.ar    1  LIG1        0.0000
      6 H           0.1700    3.4902    2.5344 H       1  LIG1        0.0000
      7 C          -0.7846    1.7325    2.3038 C.ar    1  LIG1        0.0000
      8 H          -1.4845    2.0804    1.7644 H       1  LIG1        0.0000
      9 C          -0.7598    0.3840    2.6044 C.ar    1  LIG1        0.0000
     10 H          -1.4208   -0.2145    2.2761 H       1  LIG1        0.0000
     11 C           0.2761   -0.0487    3.4053 C.ar    1  LIG1        0.0000
     12 N           0.3845   -1.4116    3.7790 N.pl3   1  LIG1        0.0000
     13 N           1.4418   -1.5767    4.4821 N.pl3   1  LIG1        0.0000
     14 C           1.7525   -2.8773    4.9031 C.ar    1  LIG1        0.0000
     15 C           1.0016   -3.9716    4.4728 C.ar    1  LIG1        0.0000
     16 H           0.2673   -3.8526    3.8820 H       1  LIG1        0.0000
     17 C           1.3452   -5.2353    4.9206 C.ar    1  LIG1        0.0000
     18 H           0.8440   -5.9871    4.6262 H       1  LIG1        0.0000
     19 C           2.4085   -5.4228    5.7946 C.ar    1  LIG1        0.0000
     20 H           2.6248   -6.2954    6.1065 H       1  LIG1        0.0000
     21 C           3.1446   -4.3393    6.2012 C.ar    1  LIG1        0.0000
     22 H           3.8747   -4.4619    6.7973 H       1  LIG1        0.0000
     23 C           2.8320   -3.0684    5.7524 C.ar    1  LIG1        0.0000
     24 H           3.3576   -2.3256    6.0262 H       1  LIG1        0.0000
     25 O           2.2834    0.1237    6.2352 O.3     1  LIG1        0.0000
     26 C           3.5950    0.2001    6.5955 C.ar    1  LIG1        0.0000
     27 C           4.1214    0.4435    7.8401 C.ar    1  LIG1        0.0000
     28 H           3.5722    0.5553    8.6070 H       1  LIG1        0.0000
     29 C           5.5174    0.5138    7.9080 C.ar    1  LIG1        0.0000
     30 C           6.3147    0.3570    6.7983 C.ar    1  LIG1        0.0000
     31 C           5.7889    0.1082    5.5270 C.ar    1  LIG1        0.0000
     32 H           6.3366    0.0090    4.7570 H       1  LIG1        0.0000
     33 C           4.4065    0.0162    5.4776 C.ar    1  LIG1        0.0000
     34 O           3.6393   -0.1873    4.3606 O.3     1  LIG1        0.0000
     35 CL          6.2175    0.8369    9.4534 Cl      1  LIG1        0.0000
     36 CL          8.0461    0.4518    6.9192 Cl      1  LIG1        0.0000
     37 B          10.6387   -2.7583   11.3916 B       2  LIG2        0.0000
     38 C          11.6185   -3.6164   12.2635 C.ar    2  LIG2        0.0000
     39 C          11.6603   -4.9559   12.6207 C.ar    2  LIG2        0.0000
     40 H          10.9844   -5.5490   12.3140 H       2  LIG2        0.0000
     41 C          12.6919   -5.4354   13.4278 C.ar    2  LIG2        0.0000
     42 H          12.7013   -6.3531   13.6728 H       2  LIG2        0.0000
     43 C          13.7001   -4.6062   13.8797 C.ar    2  LIG2        0.0000
     44 H          14.4031   -4.9559   14.4150 H       2  LIG2        0.0000
     45 C          13.6802   -3.2685   13.5462 C.ar    2  LIG2        0.0000
     46 H          14.3552   -2.6790   13.8602 H       2  LIG2        0.0000
     47 C          12.6475   -2.8052   12.7401 C.ar    2  LIG2        0.0000
     48 N          12.5326   -1.4549   12.3840 N.pl3   2  LIG2        0.0000
     49 N          11.4766   -1.2735   11.7138 N.pl3   2  LIG2        0.0000
     50 C          11.1868    0.0613   11.3092 C.ar    2  LIG2        0.0000
     51 C          11.9500    1.1304   11.7550 C.ar    2  LIG2        0.0000
     52 H          12.6865    0.9789   12.3345 H       2  LIG2        0.0000
     53 C          11.6426    2.4139   11.3576 C.ar    2  LIG2        0.0000
     54 H          12.1731    3.1441   11.6500 H       2  LIG2        0.0000
     55 C          10.5532    2.6303   10.5259 C.ar    2  LIG2        0.0000
     56 H          10.3383    3.5137   10.2531 H       2  LIG2        0.0000
     57 C           9.7797    1.5720   10.0925 C.ar    2  LIG2        0.0000
     58 H           9.0328    1.7289    9.5263 H       2  LIG2        0.0000
     59 C          10.0944    0.2758   10.4878 C.ar    2  LIG2        0.0000
     60 H           9.5639   -0.4561   10.1954 H       2  LIG2        0.0000
     61 O          10.6232   -2.9647    9.9422 O.3     2  LIG2        0.0000
     62 C           9.3144   -2.8989    9.5654 C.ar    2  LIG2        0.0000
     63 C           8.7804   -2.9945    8.3033 C.ar    2  LIG2        0.0000
     64 H           9.3264   -3.1008    7.5333 H       2  LIG2        0.0000
     65 C           7.3803   -2.9259    8.2179 C.ar    2  LIG2        0.0000
     66 C           6.5870   -2.7853    9.3019 C.ar    2  LIG2        0.0000
     67 C           7.1268   -2.7042   10.5886 C.ar    2  LIG2        0.0000
     68 H           6.5766   -2.6123   11.3576 H       2  LIG2        0.0000
     69 C           8.5015   -2.7673   10.6803 C.ar    2  LIG2        0.0000
     70 O           9.2587   -2.6555   11.8147 O.3     2  LIG2        0.0000
     71 CL          6.7014   -3.0437    6.6164 Cl      2  LIG2        0.0000
     72 CL          4.8617   -2.7505    9.1647 Cl      2  LIG2        0.0000
@<TRIPOS>BOND
     1     8     7    1
     2    10     9    1
     3     7     9   ar
     4     7     5   ar
     5     6     5    1
     6     9    11   ar
     7     5     3   ar
     8    11    12    1
     9    11     2   ar
    10     3     2   ar
    11     3     4    1
    12    12    13    1
    13    16    15    1
    14     2     1    1
    15    34     1    1
    16    34    33    1
    17    15    14   ar
    18    15    17   ar
    19    13     1    1
    20    13    14    1
    21    18    17    1
    22    32    31    1
    23     1    25    1
    24    14    23   ar
    25    17    19   ar
    26    33    31   ar
    27    33    26   ar
    28    31    30   ar
    29    23    24    1
    30    23    21   ar
    31    19    20    1
    32    19    21   ar
    33    21    22    1
    34    25    26    1
    35    26    27   ar
    36    71    65    1
    37    30    36    1
    38    30    29   ar
    39    64    63    1
    40    27    29   ar
    41    27    28    1
    42    29    35    1
    43    65    63   ar
    44    65    66   ar
    45    63    62   ar
    46    72    66    1
    47    66    67   ar
    48    58    57    1
    49    62    61    1
    50    62    69   ar
    51    61    37    1
    52    57    59   ar
    53    57    55   ar
    54    60    59    1
    55    56    55    1
    56    59    50   ar
    57    55    53   ar
    58    67    69   ar
    59    67    68    1
    60    69    70    1
    61    50    49    1
    62    50    51   ar
    63    53    54    1
    64    53    51   ar
    65    37    49    1
    66    37    70    1
    67    37    38    1
    68    49    48    1
    69    51    52    1
    70    38    39   ar
    71    38    47   ar
    72    40    39    1
    73    48    47    1
    74    39    41   ar
    75    47    45   ar
    76    41    42    1
    77    41    43   ar
    78    45    46    1
    79    45    43   ar
    80    43    44    1
