@<TRIPOS>MOLECULE
methyl (1E,4E)-6\a,8\b-diacetoxy-7\bH-germacra-1(10),4-dien-14-oate
 56 56 0 0 0
SMALL
GASTEIGER

@<TRIPOS>ATOM
      1 O           6.9164    9.3602    2.9936 O.3     1  LIG1       -0.4608
      2 O           9.1782    3.6472    1.8740 O.3     1  LIG1       -0.4647
      3 O           4.3059    6.1657    3.0005 O.3     1  LIG1       -0.4608
      4 O           4.7364    9.8298    2.8587 O.2     1  LIG1       -0.2512
      5 O           7.0267    3.2668    1.4472 O.2     1  LIG1       -0.2453
      6 O           3.3660    5.5940    1.0824 O.2     1  LIG1       -0.2512
      7 C           8.5073    4.3393    4.4317 C.2     1  LIG1       -0.0739
      8 C           8.3913    4.8254    5.8527 C.3     1  LIG1       -0.0335
      9 C           8.8256    6.2985    6.0307 C.3     1  LIG1       -0.0433
     10 C           7.7594    7.1841    5.4702 C.3     1  LIG1       -0.0194
     11 C           7.7850    7.4767    4.1671 C.3     1  LIG1        0.0092
     12 C           6.6294    7.9696    3.3717 C.3     1  LIG1        0.1132
     13 C           6.3405    7.1087    2.1191 C.3     1  LIG1        0.0361
     14 C           5.6268    5.7921    2.5118 C.3     1  LIG1        0.1136
     15 C           6.1685    4.8738    3.6177 C.3     1  LIG1        0.0164
     16 C           7.5855    4.3595    3.4665 C.2     1  LIG1        0.0361
     17 C           7.5332    6.8645    1.1482 C.3     1  LIG1       -0.0371
     18 C           8.3410    8.1125    0.8260 C.3     1  LIG1       -0.0622
     19 C           7.0219    6.2771   -0.1815 C.3     1  LIG1       -0.0622
     20 C           7.8734    3.6990    2.1674 C.2     1  LIG1        0.3347
     21 C           6.6408    7.5217    6.3953 C.3     1  LIG1       -0.0587
     22 C           5.8787   10.1651    2.7524 C.2     1  LIG1        0.3042
     23 C           6.3557   11.5245    2.3288 C.3     1  LIG1        0.0332
     24 C           3.2653    6.0228    2.1805 C.2     1  LIG1        0.3042
     25 C           1.9985    6.4988    2.8046 C.3     1  LIG1        0.0332
     26 C           9.5118    3.0519    0.5931 C.3     1  LIG1        0.0820
     27 H           9.3302    3.9769    4.1954 H       1  LIG1        0.0577
     28 H           8.9397    4.2639    6.4221 H       1  LIG1        0.0308
     29 H           7.4705    4.7309    6.1428 H       1  LIG1        0.0308
     30 H           8.9558    6.4932    6.9711 H       1  LIG1        0.0274
     31 H           9.6629    6.4538    5.5669 H       1  LIG1        0.0274
     32 H           8.5928    7.3619    3.7196 H       1  LIG1        0.0346
     33 H           5.8340    7.9617    3.9430 H       1  LIG1        0.0741
     34 H           5.6820    7.6162    1.6007 H       1  LIG1        0.0375
     35 H           5.5100    5.2553    1.7009 H       1  LIG1        0.0741
     36 H           6.1134    5.3543    4.4593 H       1  LIG1        0.0351
     37 H           5.5784    4.1075    3.6849 H       1  LIG1        0.0351
     38 H           8.1338    6.2096    1.5603 H       1  LIG1        0.0300
     39 H           9.0385    7.8897    0.2042 H       1  LIG1        0.0232
     40 H           8.7287    8.4591    1.6335 H       1  LIG1        0.0232
     41 H           7.7660    8.7753    0.4373 H       1  LIG1        0.0232
     42 H           6.3215    6.8341   -0.5297 H       1  LIG1        0.0232
     43 H           6.6826    5.3926   -0.0308 H       1  LIG1        0.0232
     44 H           7.7442    6.2400   -0.8129 H       1  LIG1        0.0232
     45 H           5.9205    7.9133    5.8963 H       1  LIG1        0.0235
     46 H           6.9497    8.1451    7.0559 H       1  LIG1        0.0235
     47 H           6.3329    6.7227    6.8286 H       1  LIG1        0.0235
     48 H           5.6240   12.0151    1.9455 H       1  LIG1        0.0342
     49 H           7.0533   11.4289    1.6758 H       1  LIG1        0.0342
     50 H           6.6941   11.9971    3.0916 H       1  LIG1        0.0342
     51 H           1.3951    6.7936    2.1189 H       1  LIG1        0.0342
     52 H           2.1886    7.2280    3.3998 H       1  LIG1        0.0342
     53 H           1.5965    5.7797    3.2977 H       1  LIG1        0.0342
     54 H           9.1088    2.1820    0.5297 H       1  LIG1        0.0661
     55 H          10.4649    2.9686    0.5162 H       1  LIG1        0.0661
     56 H           9.1810    3.6101   -0.1156 H       1  LIG1        0.0661
@<TRIPOS>BOND
     1    44    19    1
     2    42    19    1
     3    19    43    1
     4    19    17    1
     5    56    26    1
     6    39    18    1
     7    41    18    1
     8    55    26    1
     9    54    26    1
    10    26     2    1
    11    18    17    1
    12    18    40    1
    13     6    24    2
    14    17    38    1
    15    17    13    1
    16     5    20    2
    17    34    13    1
    18    49    23    1
    19    35    14    1
    20     2    20    1
    21    48    23    1
    22    51    25    1
    23    13    14    1
    24    13    12    1
    25    20    16    1
    26    24    25    1
    27    24     3    1
    28    23    22    1
    29    23    50    1
    30    14     3    1
    31    14    15    1
    32    22     4    2
    33    22     1    1
    34    25    53    1
    35    25    52    1
    36     1    12    1
    37    12    33    1
    38    12    11    1
    39    16    15    1
    40    16     7    2
    41    15    37    1
    42    15    36    1
    43    32    11    1
    44    11    10    1
    45    27     7    1
    46     7     8    1
    47    10     9    1
    48    10    21    1
    49    31     9    1
    50     8     9    1
    51     8    29    1
    52     8    28    1
    53    45    21    1
    54     9    30    1
    55    21    47    1
    56    21    46    1
