@<TRIPOS>MOLECULE
?
 26 26 0 0 0
SMALL
GASTEIGER

@<TRIPOS>ATOM
      1 S           2.5621    7.8989    2.8197 S.3     1  LIG1        0.0753
      2 O           1.5605    7.4025    3.8040 O.3     1  LIG1       -0.1383
      3 N           2.6670    6.8495    1.4862 N.2     1  LIG1       -0.2051
      4 C           1.7204    5.9971    1.3710 C.2     1  LIG1        0.0444
      5 H           1.0250    5.9896    2.0174 H       1  LIG1        0.0843
      6 C           1.6773    5.0292    0.2683 C.ar    1  LIG1       -0.0063
      7 C           2.7325    4.9211   -0.6475 C.ar    1  LIG1       -0.0531
      8 H           3.4998    5.4736   -0.5576 H       1  LIG1        0.0624
      9 C           2.6542    4.0052   -1.6860 C.ar    1  LIG1       -0.0612
     10 H           3.3699    3.9325   -2.3069 H       1  LIG1        0.0618
     11 C           1.5277    3.1885   -1.8251 C.ar    1  LIG1       -0.0617
     12 H           1.4734    2.5730   -2.5466 H       1  LIG1        0.0618
     13 C           0.4880    3.2760   -0.9077 C.ar    1  LIG1       -0.0612
     14 H          -0.2720    2.7123   -0.9927 H       1  LIG1        0.0618
     15 C           0.5645    4.1956    0.1403 C.ar    1  LIG1       -0.0531
     16 H          -0.1446    4.2544    0.7707 H       1  LIG1        0.0624
     17 C           4.2134    7.4926    3.4839 C.3     1  LIG1        0.0382
     18 H           4.8983    7.7171    2.7899 H       1  LIG1        0.0439
     19 C           4.3370    6.0142    3.8240 C.3     1  LIG1       -0.0505
     20 H           5.2476    5.8253    4.1343 H       1  LIG1        0.0241
     21 H           4.1453    5.4784    3.0261 H       1  LIG1        0.0241
     22 H           3.6974    5.7878    4.5321 H       1  LIG1        0.0241
     23 C           4.4410    8.3896    4.6963 C.3     1  LIG1       -0.0505
     24 H           3.7972    8.1590    5.3987 H       1  LIG1        0.0241
     25 H           4.3194    9.3264    4.4362 H       1  LIG1        0.0241
     26 H           5.3520    8.2599    5.0329 H       1  LIG1        0.0241
@<TRIPOS>BOND
     1    12    11    1
     2    10     9    1
     3    11     9   ar
     4    11    13   ar
     5     9     7   ar
     6    14    13    1
     7    13    15   ar
     8     7     8    1
     9     7     6   ar
    10    15     6   ar
    11    15    16    1
    12     6     4    1
    13     4     3    2
    14     4     5    1
    15     3     1    1
    16    18    17    1
    17     1    17    1
    18     1     2    1
    19    21    19    1
    20    17    19    1
    21    17    23    1
    22    19    20    1
    23    19    22    1
    24    25    23    1
    25    23    26    1
    26    23    24    1
