@<TRIPOS>MOLECULE
C15 H21 N1 O3
 40 41 0 0 0
SMALL
GASTEIGER

@<TRIPOS>ATOM
      1 C          13.8696    1.7207    2.5744 C.2     1  LIG1        0.2256
      2 O          13.9254    0.6432    1.9761 O.2     1  LIG1       -0.2748
      3 N          14.7131    1.9958    3.5963 N.am    1  LIG1       -0.2710
      4 C          15.7241    1.0267    3.9285 C.ar    1  LIG1        0.0365
      5 C          16.8187    0.8487    3.1067 C.ar    1  LIG1       -0.0368
      6 C          17.7931   -0.0842    3.4235 C.ar    1  LIG1       -0.0182
      7 C          17.6766   -0.8295    4.5859 C.ar    1  LIG1        0.1202
      8 C          16.5731   -0.6591    5.4123 C.ar    1  LIG1       -0.0182
      9 C          15.6001    0.2662    5.0804 C.ar    1  LIG1       -0.0368
     10 O          18.5987   -1.7583    4.9964 O.3     1  LIG1       -0.4951
     11 C          19.7141   -1.9828    4.1288 C.3     1  LIG1        0.0788
     12 C          14.8019    3.2990    4.2747 C.3     1  LIG1        0.0224
     13 C          13.5240    4.0834    4.1483 C.3     1  LIG1       -0.0073
     14 C          13.0606    4.1566    2.7002 C.3     1  LIG1        0.0758
     15 O          14.1104    4.6724    1.8797 O.3     1  LIG1       -0.3880
     16 C          11.8124    5.0231    2.5980 C.3     1  LIG1       -0.0353
     17 C          12.7948    2.7343    2.2019 C.3     1  LIG1        0.0643
     18 C          12.4753    2.6454    0.6911 C.3     1  LIG1       -0.0421
     19 C          11.3070    1.7419    0.3732 C.3     1  LIG1       -0.0645
     20 H          16.8951    1.3497    2.3131 H       1  LIG1        0.0637
     21 H          18.5218   -0.1958    2.8413 H       1  LIG1        0.0655
     22 H          16.5141   -1.1868    6.1716 H       1  LIG1        0.0655
     23 H          14.8452    0.3689    5.6279 H       1  LIG1        0.0637
     24 H          20.2462   -2.6467    4.5394 H       1  LIG1        0.0660
     25 H          19.3928   -2.3312    3.2674 H       1  LIG1        0.0660
     26 H          20.2373   -1.1827    3.9906 H       1  LIG1        0.0660
     27 H          15.5521    3.7959    3.8627 H       1  LIG1        0.0469
     28 H          15.0089    3.1320    5.2080 H       1  LIG1        0.0469
     29 H          12.7900    3.6344    4.6622 H       1  LIG1        0.0308
     30 H          13.6388    4.9855    4.5343 H       1  LIG1        0.0308
     31 H          14.1218    5.5303    2.0118 H       1  LIG1        0.2102
     32 H          11.4663    5.0696    1.7105 H       1  LIG1        0.0257
     33 H          11.0971    4.6590    3.1116 H       1  LIG1        0.0257
     34 H          11.9392    5.9170    2.9486 H       1  LIG1        0.0257
     35 H          11.9978    2.4106    2.7061 H       1  LIG1        0.0422
     36 H          12.3027    3.5290    0.3343 H       1  LIG1        0.0271
     37 H          13.2646    2.3134    0.2363 H       1  LIG1        0.0271
     38 H          11.1862    1.7022   -0.5829 H       1  LIG1        0.0230
     39 H          10.5085    2.1485    0.7273 H       1  LIG1        0.0230
     40 H          11.3736    0.8289    0.7016 H       1  LIG1        0.0230
@<TRIPOS>BOND
     1    38    19    1
     2    37    18    1
     3    36    18    1
     4    19    18    1
     5    19    40    1
     6    19    39    1
     7    18    17    1
     8    32    16    1
     9    15    31    1
    10    15    14    1
    11     2     1    2
    12    17     1    1
    13    17    14    1
    14    17    35    1
    15    20     5    1
    16     1     3   am
    17    16    14    1
    18    16    34    1
    19    16    33    1
    20    14    13    1
    21    21     6    1
    22     5     6   ar
    23     5     4   ar
    24    25    11    1
    25     6     7   ar
    26     3     4    1
    27     3    12    1
    28    27    12    1
    29     4     9   ar
    30    26    11    1
    31    11    24    1
    32    11    10    1
    33    13    12    1
    34    13    30    1
    35    13    29    1
    36    12    28    1
    37     7    10    1
    38     7     8   ar
    39     9     8   ar
    40     9    23    1
    41     8    22    1
