@<TRIPOS>MOLECULE
?
 73 76 0 0 0
SMALL
GASTEIGER

@<TRIPOS>ATOM
      1 O           0.7780    5.8107    1.2508 O.3     1  LIG1       -0.3421
      2 O          -1.1910    4.9452    2.1478 O.3     1  LIG1       -0.3457
      3 O           1.6523    3.3371    1.6639 O.2     1  LIG1       -0.2911
      4 O          -1.3644    1.4177    8.1938 O.3     1  LIG1       -0.3466
      5 O          -2.8195    3.0500    8.8172 O.3     1  LIG1       -0.3466
      6 C           0.8384    7.2101    1.6063 C.3     1  LIG1        0.0546
      7 C           1.2479    7.1906    3.0670 C.3     1  LIG1       -0.0088
      8 C           2.7461    6.9453    3.2458 C.3     1  LIG1       -0.0477
      9 C           3.0755    6.4680    4.6331 C.3     1  LIG1       -0.0522
     10 C           2.3478    5.1537    4.9121 C.3     1  LIG1       -0.0469
     11 C           0.8122    5.2976    4.8621 C.3     1  LIG1       -0.0199
     12 C           0.0507    3.9327    4.8872 C.3     1  LIG1       -0.0227
     13 C           0.4962    2.9531    3.7478 C.3     1  LIG1        0.0352
     14 C           0.8809    3.7557    2.4902 C.2     1  LIG1        0.1983
     15 C           0.2063    5.1299    2.3279 C.3     1  LIG1        0.2341
     16 C           0.3730    6.0255    3.5753 C.3     1  LIG1        0.0312
     17 C           0.3748    6.1871    6.0419 C.3     1  LIG1       -0.0588
     18 C           1.6748    2.0274    4.1509 C.3     1  LIG1       -0.0524
     19 C          -1.5779    4.3994    0.8810 C.3     1  LIG1        0.0401
     20 C          -0.7246    2.0590    3.3839 C.3     1  LIG1       -0.0370
     21 C          -0.4902    0.9978    2.3063 C.3     1  LIG1       -0.0336
     22 C          -1.7468    0.2794    1.9427 C.2     1  LIG1       -0.0853
     23 C          -1.8888   -1.0192    1.6984 C.2     1  LIG1       -0.0796
     24 C          -3.2115   -1.6017    1.3318 C.3     1  LIG1       -0.0440
     25 C          -0.7733   -1.9880    1.7359 C.3     1  LIG1       -0.0440
     26 C          -0.0030    3.2417    6.2708 C.3     1  LIG1       -0.0440
     27 C          -1.3420    3.4675    6.9759 C.3     1  LIG1        0.0014
     28 C          -1.4888    2.8214    8.3411 C.3     1  LIG1        0.1674
     29 C          -2.3927    0.8150    8.9611 C.3     1  LIG1        0.0744
     30 C          -3.4837    1.7953    8.8750 C.3     1  LIG1        0.0744
     31 C          -0.5532    3.3786    9.3735 C.3     1  LIG1       -0.0105
     32 H           1.5198    7.5654    1.0752 H       1  LIG1        0.0564
     33 H          -0.1016    7.6281    1.4824 H       1  LIG1        0.0564
     34 H           1.0025    8.0186    3.5226 H       1  LIG1        0.0328
     35 H           3.0012    6.2979    2.5938 H       1  LIG1        0.0269
     36 H           3.2048    7.7604    3.0691 H       1  LIG1        0.0269
     37 H           4.0575    6.3210    4.7398 H       1  LIG1        0.0266
     38 H           2.7815    7.1854    5.3571 H       1  LIG1        0.0266
     39 H           2.5546    4.8051    5.7845 H       1  LIG1        0.0271
     40 H           2.6292    4.5638    4.2471 H       1  LIG1        0.0271
     41 H          -0.8842    4.1730    4.6239 H       1  LIG1        0.0316
     42 H          -0.5137    6.3726    3.7747 H       1  LIG1        0.0366
     43 H          -0.5820    6.2622    6.0729 H       1  LIG1        0.0235
     44 H           0.7051    5.8801    6.9003 H       1  LIG1        0.0235
     45 H           0.7282    7.1300    6.0338 H       1  LIG1        0.0235
     46 H           1.3426    1.2607    4.5978 H       1  LIG1        0.0239
     47 H           2.0559    1.6623    3.3777 H       1  LIG1        0.0239
     48 H           2.4133    2.5577    4.7036 H       1  LIG1        0.0239
     49 H          -2.5040    4.3818    0.8173 H       1  LIG1        0.0525
     50 H          -1.1006    3.5256    0.7405 H       1  LIG1        0.0525
     51 H          -1.3910    5.0402    0.1594 H       1  LIG1        0.0525
     52 H          -1.4924    2.6333    3.1458 H       1  LIG1        0.0278
     53 H          -0.9810    1.5725    4.2355 H       1  LIG1        0.0278
     54 H           0.2433    0.3409    2.5141 H       1  LIG1        0.0308
     55 H          -0.1663    1.4268    1.5186 H       1  LIG1        0.0308
     56 H          -2.5483    0.8589    1.8736 H       1  LIG1        0.0571
     57 H          -3.9199   -0.9021    1.3244 H       1  LIG1        0.0274
     58 H          -3.1563   -2.0649    0.4593 H       1  LIG1        0.0274
     59 H          -3.3706   -2.2959    1.8765 H       1  LIG1        0.0274
     60 H          -0.7911   -2.7354    1.0332 H       1  LIG1        0.0274
     61 H          -0.0008   -1.6126    1.8808 H       1  LIG1        0.0274
     62 H          -0.9247   -2.6459    2.3054 H       1  LIG1        0.0274
     63 H           0.0847    2.2202    6.1048 H       1  LIG1        0.0270
     64 H           0.7319    3.5788    6.8539 H       1  LIG1        0.0270
     65 H          -1.4645    4.3407    7.0568 H       1  LIG1        0.0317
     66 H          -2.1258    3.1229    6.3714 H       1  LIG1        0.0317
     67 H          -2.0748    0.7341    9.9433 H       1  LIG1        0.0584
     68 H          -2.6222    0.0229    8.6203 H       1  LIG1        0.0584
     69 H          -4.1084    1.8085    9.6433 H       1  LIG1        0.0584
     70 H          -3.9808    1.7824    8.0016 H       1  LIG1        0.0584
     71 H          -0.5915    2.9322   10.1852 H       1  LIG1        0.0281
     72 H           0.3869    3.1884    9.1593 H       1  LIG1        0.0281
     73 H          -0.7311    4.4327    9.3709 H       1  LIG1        0.0281
@<TRIPOS>BOND
     1    51    19    1
     2    58    24    1
     3    50    19    1
     4    49    19    1
     5    19     2    1
     6    60    25    1
     7    32     6    1
     8     1     6    1
     9     1    15    1
    10    57    24    1
    11    24    23    1
    12    24    59    1
    13    33     6    1
    14    55    21    1
    15     6     7    1
    16     3    14    2
    17    23    25    1
    18    23    22    2
    19    25    61    1
    20    25    62    1
    21    56    22    1
    22    22    21    1
    23     2    15    1
    24    21    54    1
    25    21    20    1
    26    15    14    1
    27    15    16    1
    28    14    13    1
    29    35     8    1
    30     7     8    1
    31     7    34    1
    32     7    16    1
    33    36     8    1
    34    52    20    1
    35     8     9    1
    36    47    18    1
    37    20    13    1
    38    20    53    1
    39    16    42    1
    40    16    11    1
    41    13    18    1
    42    13    12    1
    43    18    46    1
    44    18    48    1
    45    40    10    1
    46    41    12    1
    47     9    37    1
    48     9    10    1
    49     9    38    1
    50    11    12    1
    51    11    10    1
    52    11    17    1
    53    12    26    1
    54    10    39    1
    55    45    17    1
    56    17    43    1
    57    17    44    1
    58    63    26    1
    59    26    64    1
    60    26    27    1
    61    66    27    1
    62    27    65    1
    63    27    28    1
    64    70    30    1
    65     4    28    1
    66     4    29    1
    67    28     5    1
    68    28    31    1
    69    68    29    1
    70     5    30    1
    71    30    29    1
    72    30    69    1
    73    29    67    1
    74    72    31    1
    75    73    31    1
    76    31    71    1
