@<TRIPOS>MOLECULE
C17 H32 N2 O2
 53 53 0 0 0
SMALL
GASTEIGER

@<TRIPOS>ATOM
      1 O           4.7370    7.6805    3.1225 O.2     1  LIG1       -0.2755
      2 O           6.9675    3.7204    1.1324 O.2     1  LIG1       -0.2736
      3 N           5.1625    6.0580    1.6042 N.am    1  LIG1       -0.3038
      4 H           5.0493    5.7920    0.7803 H       1  LIG1        0.1495
      5 N           8.1171    4.7998    2.7404 N.am    1  LIG1       -0.3005
      6 C           2.5110    7.6593    0.7998 C.3     1  LIG1       -0.0419
      7 H           2.4216    6.6861    0.6419 H       1  LIG1        0.0272
      8 H           2.0843    7.8705    1.6678 H       1  LIG1        0.0272
      9 C           1.8054    8.4231   -0.3140 C.3     1  LIG1       -0.0524
     10 H           2.1622    8.1281   -1.1886 H       1  LIG1        0.0265
     11 H           0.8382    8.2128   -0.2924 H       1  LIG1        0.0265
     12 C           1.9946    9.9292   -0.1770 C.3     1  LIG1       -0.0530
     13 H           1.5346   10.2439    0.6419 H       1  LIG1        0.0265
     14 H           1.5814   10.3832   -0.9533 H       1  LIG1        0.0265
     15 C           3.4731   10.3009   -0.1007 C.3     1  LIG1       -0.0524
     16 H           3.9140   10.0819   -0.9602 H       1  LIG1        0.0265
     17 H           3.5618   11.2754    0.0502 H       1  LIG1        0.0265
     18 C           4.1602    9.5436    1.0334 C.3     1  LIG1       -0.0419
     19 H           5.1229    9.7742    1.0485 H       1  LIG1        0.0272
     20 H           3.7653    9.8170    1.8997 H       1  LIG1        0.0272
     21 C           4.0014    8.0363    0.8550 C.3     1  LIG1        0.0356
     22 H           4.4247    7.7758   -0.0121 H       1  LIG1        0.0394
     23 C           4.6769    7.2605    1.9672 C.2     1  LIG1        0.2167
     24 C           5.6654    5.1072    2.5808 C.3     1  LIG1        0.0998
     25 H           5.8313    5.5863    3.4430 H       1  LIG1        0.0595
     26 C           6.9829    4.5056    2.0872 C.2     1  LIG1        0.2359
     27 C           8.2407    5.8748    3.7374 C.3     1  LIG1        0.0119
     28 H           7.5764    6.5804    3.5364 H       1  LIG1        0.0462
     29 H           9.1429    6.2782    3.6679 H       1  LIG1        0.0462
     30 C           8.0260    5.3827    5.1511 C.3     1  LIG1       -0.0493
     31 H           8.1195    6.1325    5.7752 H       1  LIG1        0.0245
     32 H           8.6924    4.6959    5.3634 H       1  LIG1        0.0245
     33 H           7.1274    5.0009    5.2302 H       1  LIG1        0.0245
     34 C           9.3406    4.0431    2.4300 C.3     1  LIG1        0.0119
     35 H           9.0862    3.1455    2.0987 H       1  LIG1        0.0462
     36 H           9.8602    3.9193    3.2630 H       1  LIG1        0.0462
     37 C          10.2231    4.7121    1.3999 C.3     1  LIG1       -0.0493
     38 H          11.0138    4.1569    1.2370 H       1  LIG1        0.0245
     39 H          10.5032    5.5908    1.7301 H       1  LIG1        0.0245
     40 H           9.7239    4.8215    0.5640 H       1  LIG1        0.0245
     41 C           4.6653    3.9763    2.8272 C.3     1  LIG1       -0.0236
     42 H           5.1091    3.2720    3.3634 H       1  LIG1        0.0290
     43 H           4.4170    3.5770    1.9551 H       1  LIG1        0.0290
     44 C           3.3854    4.4112    3.5508 C.3     1  LIG1       -0.0446
     45 H           2.9990    5.1902    3.0571 H       1  LIG1        0.0296
     46 C           3.6608    4.8466    4.9856 C.3     1  LIG1       -0.0626
     47 H           4.3110    5.5799    4.9845 H       1  LIG1        0.0232
     48 H           4.0221    4.0896    5.4932 H       1  LIG1        0.0232
     49 H           2.8258    5.1502    5.4015 H       1  LIG1        0.0232
     50 C           2.3621    3.2764    3.5260 C.3     1  LIG1       -0.0626
     51 H           1.5470    3.5606    3.9914 H       1  LIG1        0.0232
     52 H           2.7365    2.4891    3.9741 H       1  LIG1        0.0232
     53 H           2.1466    3.0508    2.5969 H       1  LIG1        0.0232
@<TRIPOS>BOND
     1    10     9    1
     2    16    15    1
     3    14    12    1
     4     9    11    1
     5     9    12    1
     6     9     6    1
     7    12    15    1
     8    12    13    1
     9    15    17    1
    10    15    18    1
    11    22    21    1
    12    40    37    1
    13     7     6    1
    14     4     3    1
    15     6    21    1
    16     6     8    1
    17    21    18    1
    18    21    23    1
    19    18    19    1
    20    18    20    1
    21     2    26    2
    22    38    37    1
    23    37    39    1
    24    37    34    1
    25     3    23   am
    26     3    24    1
    27    43    41    1
    28    23     1    2
    29    26    24    1
    30    26     5   am
    31    35    34    1
    32    34     5    1
    33    34    36    1
    34    24    41    1
    35    24    25    1
    36    53    50    1
    37     5    27    1
    38    41    42    1
    39    41    44    1
    40    45    44    1
    41    50    44    1
    42    50    52    1
    43    50    51    1
    44    28    27    1
    45    44    46    1
    46    29    27    1
    47    27    30    1
    48    47    46    1
    49    46    49    1
    50    46    48    1
    51    30    33    1
    52    30    32    1
    53    30    31    1
