@<TRIPOS>MOLECULE
C22 H16 N8 O15
 32 31 0 0 0
SMALL
GASTEIGER

@<TRIPOS>ATOM
      1 O          27.5629    0.1668    5.7523 O.2     1  LIG1       -0.2870
      2 O          26.2646   -1.9045    6.7653 O.2     1  LIG1       -0.1303
      3 O          25.5483   -1.7001    8.7611 O.2     1  LIG1       -0.1303
      4 O          28.2228    0.6394   11.9366 O.2     1  LIG1       -0.1261
      5 O          29.0811    2.5243   11.3253 O.2     1  LIG1       -0.1261
      6 O          29.7643    3.4567    6.7415 O.2     1  LIG1       -0.1260
      7 O          29.5303    1.9372    5.2824 O.2     1  LIG1       -0.1260
      8 O          26.4146   -2.0021    3.9693 O.3     2  HOH2       -0.4105
      9 N          28.8218    0.0781    3.3565 N.pl3   3  LIG3       -0.3269
     10 N          26.2889   -1.3469    7.8497 N.pl3   1  LIG1        0.0437
     11 N          28.5449    1.4530   11.0808 N.pl3   1  LIG1        0.0563
     12 N          29.3359    2.3675    6.3970 N.pl3   1  LIG1        0.0600
     13 C          29.6802   -0.8659    2.9468 C.2     3  LIG3       -0.0098
     14 C          30.0614   -0.9140    1.6290 C.2     3  LIG3       -0.0580
     15 C          29.5528    0.0116    0.7240 C.3     3  LIG3        0.0370
     16 C          28.6693    0.9763    1.2003 C.2     3  LIG3       -0.0580
     17 C          28.3178    0.9879    2.5324 C.2     3  LIG3       -0.0098
     18 C          27.8030    0.4520    6.9479 C.2     1  LIG1        0.2256
     19 C          27.1934   -0.2355    8.0752 C.3     1  LIG1        0.2449
     20 C          27.4292    0.0797    9.3962 C.2     1  LIG1       -0.0108
     21 C          28.2703    1.1257    9.6915 C.2     1  LIG1        0.1275
     22 C          28.8711    1.8802    8.6944 C.2     1  LIG1        0.0021
     23 C          28.6568    1.5354    7.3782 C.2     1  LIG1        0.1735
     24 H          30.0563   -1.4837    3.6359 H       3  LIG3        0.0778
     25 H          30.6680   -1.6262    1.3496 H       3  LIG3        0.0594
     26 H          28.2471    1.6156    0.6192 H       3  LIG3        0.0594
     27 H          27.7095    1.6447    2.8563 H       3  LIG3        0.0778
     28 H          27.0078   -0.4118   10.0980 H       1  LIG1        0.0626
     29 H          29.4063    2.6083    8.9072 H       1  LIG1        0.0664
     30 H          28.6211    0.1637    4.1757 H       3  LIG3        0.1510
     31 H          26.6320   -1.5259    4.5250 H       0  HOH0        0.2052
     32 H          26.1786   -1.9536    4.6044 H       0  HOH0        0.2052
@<TRIPOS>BOND
     1    26    16    1
     2    15    16    1
     3    15    14    1
     4    16    17    2
     5    25    14    1
     6    14    13    2
     7    17    27    1
     8    17     9    1
     9    13     9    1
    10    13    24    1
    11     9    30    1
    12     8    31    1
    13     8    32    1
    14     7    12    2
    15     1    18    2
    16    12     6    2
    17    12    23    1
    18     2    10    2
    19    18    23    1
    20    18    19    1
    21    23    22    2
    22    10    19    1
    23    10     3    2
    24    19    20    1
    25    22    29    1
    26    22    21    1
    27    20    21    2
    28    20    28    1
    29    21    11    1
    30    11     5    2
    31    11     4    2
