@<TRIPOS>MOLECULE
9-ethynylfluoren-9-ol
 52 56 0 0 0
SMALL
GASTEIGER

@<TRIPOS>ATOM
      1 O          -2.7193    6.4065    6.5424 O.3     1  LIG1       -0.3686
      2 O          -1.4072    5.8662    4.1432 O.3     2  LIG2       -0.3686
      3 C           0.1538    7.6887    8.0063 C.1     1  LIG1       -0.1156
      4 C          -0.9030    7.1129    7.9264 C.1     1  LIG1       -0.0612
      5 C          -2.1511    6.3337    7.8570 C.3     1  LIG1        0.1785
      6 C          -3.1846    6.8092    8.8743 C.ar    1  LIG1        0.0083
      7 C          -3.8231    8.0376    8.9364 C.ar    1  LIG1       -0.0540
      8 C          -4.7676    8.2452    9.9521 C.ar    1  LIG1       -0.0613
      9 C          -5.0439    7.2417   10.8872 C.ar    1  LIG1       -0.0612
     10 C          -4.3834    6.0112   10.8303 C.ar    1  LIG1       -0.0536
     11 C          -3.4612    5.7984    9.8084 C.ar    1  LIG1       -0.0103
     12 C          -2.6707    4.6085    9.4653 C.ar    1  LIG1       -0.0103
     13 C          -2.6001    3.3469   10.0576 C.ar    1  LIG1       -0.0536
     14 C          -1.7579    2.3857    9.4806 C.ar    1  LIG1       -0.0612
     15 C          -1.0011    2.6834    8.3428 C.ar    1  LIG1       -0.0613
     16 C          -1.0628    3.9554    7.7608 C.ar    1  LIG1       -0.0540
     17 C          -1.9052    4.8979    8.3252 C.ar    1  LIG1        0.0083
     18 C           0.0898    5.5179    1.0342 C.1     2  LIG2       -0.1156
     19 C          -0.1575    5.2924    2.1924 C.1     2  LIG2       -0.0612
     20 C          -0.4303    4.9729    3.6018 C.3     2  LIG2        0.1785
     21 C           0.8426    5.0638    4.4374 C.ar    2  LIG2        0.0083
     22 C           1.6325    6.1809    4.6691 C.ar    2  LIG2       -0.0540
     23 C           2.7581    6.0360    5.4890 C.ar    2  LIG2       -0.0613
     24 C           3.0798    4.7930    6.0429 C.ar    2  LIG2       -0.0612
     25 C           2.2893    3.6687    5.7897 C.ar    2  LIG2       -0.0536
     26 C           1.1608    3.8163    4.9882 C.ar    2  LIG2       -0.0103
     27 C           0.1323    2.8471    4.5864 C.ar    2  LIG2       -0.0103
     28 C          -0.0204    1.5014    4.9044 C.ar    2  LIG2       -0.0536
     29 C          -1.1153    0.8129    4.3779 C.ar    2  LIG2       -0.0612
     30 C          -2.0388    1.4663    3.5453 C.ar    2  LIG2       -0.0613
     31 C          -1.8896    2.8214    3.2270 C.ar    2  LIG2       -0.0540
     32 C          -0.8038    3.4980    3.7654 C.ar    2  LIG2        0.0083
     33 H          -2.0449    6.1391    5.8793 H       1  LIG1        0.2121
     34 H           1.1037    8.2035    8.0780 H       1  LIG1        0.1229
     35 H          -3.6006    8.8191    8.2204 H       1  LIG1        0.0622
     36 H          -5.2900    9.1917   10.0158 H       1  LIG1        0.0618
     37 H          -5.7794    7.4194   11.6618 H       1  LIG1        0.0618
     38 H          -4.5823    5.2415   11.5657 H       1  LIG1        0.0624
     39 H          -3.1771    3.1116   10.9433 H       1  LIG1        0.0624
     40 H          -1.6912    1.3977    9.9192 H       1  LIG1        0.0618
     41 H          -0.3622    1.9244    7.9085 H       1  LIG1        0.0618
     42 H          -0.4663    4.1958    6.8894 H       1  LIG1        0.0622
     43 H          -2.1410    5.9775    3.4985 H       2  LIG2        0.2121
     44 H           0.3092    5.7173   -0.0074 H       2  LIG2        0.1229
     45 H           1.3866    7.1399    4.2301 H       2  LIG2        0.0622
     46 H           3.3865    6.8919    5.7022 H       2  LIG2        0.0618
     47 H           3.9520    4.6983    6.6781 H       2  LIG2        0.0618
     48 H           2.5566    2.7068    6.2096 H       2  LIG2        0.0624
     49 H           0.6911    0.9936    5.5437 H       2  LIG2        0.0624
     50 H          -1.2670   -0.2341    4.6096 H       2  LIG2        0.0618
     51 H          -2.8777    0.9071    3.1500 H       2  LIG2        0.0618
     52 H          -2.5964    3.3215    2.5765 H       2  LIG2        0.0622
@<TRIPOS>BOND
     1    44    18    1
     2    18    19    3
     3    19    20    1
     4    52    31    1
     5    51    30    1
     6    31    30   ar
     7    31    32   ar
     8    43     2    1
     9    30    29   ar
    10    20    32    1
    11    20     2    1
    12    20    21    1
    13    32    27   ar
    14    45    22    1
    15    29    50    1
    16    29    28   ar
    17    21    22   ar
    18    21    26   ar
    19    27    28   ar
    20    27    26    1
    21    22    23   ar
    22    28    49    1
    23    26    25   ar
    24    23    46    1
    25    23    24   ar
    26    25    24   ar
    27    25    48    1
    28    33     1    1
    29    24    47    1
    30     1     5    1
    31    42    16    1
    32    16    17   ar
    33    16    15   ar
    34     5     4    1
    35     5    17    1
    36     5     6    1
    37    41    15    1
    38     4     3    3
    39     3    34    1
    40    35     7    1
    41    17    12   ar
    42    15    14   ar
    43     6     7   ar
    44     6    11   ar
    45     7     8   ar
    46    12    11    1
    47    12    13   ar
    48    14    40    1
    49    14    13   ar
    50    11    10   ar
    51     8    36    1
    52     8     9   ar
    53    13    39    1
    54    10     9   ar
    55    10    38    1
    56     9    37    1
