@<TRIPOS>MOLECULE
?
 43 45 0 0 0
SMALL
GASTEIGER

@<TRIPOS>ATOM
      1 O           6.7874    6.6149    5.1231 O.3     1  LIG1       -0.4536
      2 O           6.0855    8.5517    4.2350 O.2     1  LIG1       -0.2453
      3 O           7.8558    5.1484   11.3608 O.2     1  LIG1       -0.2502
      4 O           9.1615    6.8653   10.9282 O.3     1  LIG1       -0.4675
      5 C           7.4906    6.2179    6.3224 C.3     1  LIG1        0.1258
      6 H           8.3780    5.8807    6.0795 H       1  LIG1        0.0782
      7 C           6.7712    5.1757    7.1394 C.3     1  LIG1       -0.0081
      8 H           6.7555    4.3323    6.6597 H       1  LIG1        0.0307
      9 H           5.8544    5.4528    7.2963 H       1  LIG1        0.0307
     10 C           7.4998    5.0024    8.4759 C.3     1  LIG1       -0.0236
     11 H           6.9971    4.3362    8.9895 H       1  LIG1        0.0310
     12 C           7.4757    6.3258    9.3036 C.3     1  LIG1        0.0804
     13 C           8.1534    7.5035    8.5047 C.3     1  LIG1        0.0006
     14 H           9.1169    7.3292    8.4759 H       1  LIG1        0.0358
     15 C           7.9480    8.9234    9.0696 C.3     1  LIG1       -0.0450
     16 H           7.0443    8.9967    9.4150 H       1  LIG1        0.0271
     17 H           8.5588    9.0582    9.8101 H       1  LIG1        0.0271
     18 C           8.1701   10.0154    8.0458 C.3     1  LIG1       -0.0483
     19 H           9.0733    9.9503    7.6959 H       1  LIG1        0.0269
     20 H           8.0763   10.8812    8.4725 H       1  LIG1        0.0269
     21 C           7.1634    9.9046    6.8855 C.3     1  LIG1       -0.0208
     22 H           6.2772   10.1577    7.1880 H       1  LIG1        0.0315
     23 H           7.4209   10.4979    6.1630 H       1  LIG1        0.0315
     24 C           7.1580    8.4953    6.4125 C.2     1  LIG1        0.0396
     25 C           7.6420    7.4752    7.1008 C.2     1  LIG1       -0.0155
     26 C           6.6154    7.9753    5.1528 C.2     1  LIG1        0.3358
     27 C           8.9135    4.4430    8.2851 C.3     1  LIG1       -0.0612
     28 H           8.8715    3.6398    7.7602 H       1  LIG1        0.0233
     29 H           9.2982    4.2456    9.1418 H       1  LIG1        0.0233
     30 H           9.4567    5.0925    7.8325 H       1  LIG1        0.0233
     31 C           8.1766    6.0390   10.6284 C.2     1  LIG1        0.3142
     32 C           9.8316    6.6358   12.1918 C.3     1  LIG1        0.0817
     33 H          10.5299    7.2851   12.3069 H       1  LIG1        0.0661
     34 H          10.2108    5.7540   12.1974 H       1  LIG1        0.0661
     35 H           9.1993    6.7172   12.9097 H       1  LIG1        0.0661
     36 C           6.0042    6.7083    9.6557 C.3     1  LIG1       -0.0184
     37 H           6.0266    7.3973   10.3383 H       1  LIG1        0.0318
     38 H           5.5975    7.0985    8.8664 H       1  LIG1        0.0318
     39 C           5.1188    5.6024   10.1397 C.2     1  LIG1       -0.0900
     40 H           5.4269    5.0734   10.8395 H       1  LIG1        0.0567
     41 C           3.9502    5.3323    9.6464 C.2     1  LIG1       -0.1026
     42 H           3.6115    5.8418    8.9454 H       1  LIG1        0.0532
     43 H           3.4492    4.6294    9.9941 H       1  LIG1        0.0532
@<TRIPOS>BOND
     1     2    26    2
     2     1    26    1
     3     1     5    1
     4    26    24    1
     5     6     5    1
     6    23    21    1
     7     5    25    1
     8     5     7    1
     9    24    21    1
    10    24    25    2
    11     8     7    1
    12    21    22    1
    13    21    18    1
    14    25    13    1
    15     7     9    1
    16     7    10    1
    17    19    18    1
    18    28    27    1
    19    30    27    1
    20    18    20    1
    21    18    15    1
    22    27    10    1
    23    27    29    1
    24    14    13    1
    25    10    11    1
    26    10    12    1
    27    13    15    1
    28    13    12    1
    29    38    36    1
    30    42    41    1
    31    15    16    1
    32    15    17    1
    33    12    36    1
    34    12    31    1
    35    41    43    1
    36    41    39    2
    37    36    39    1
    38    36    37    1
    39    39    40    1
    40    31     4    1
    41    31     3    2
    42     4    32    1
    43    32    34    1
    44    32    33    1
    45    32    35    1
