@<TRIPOS>MOLECULE
Double-bent [5]phenylene
 22 25 0 0 0
SMALL
GASTEIGER

@<TRIPOS>ATOM
      1 C          -0.9715    0.2899    1.0865 C.2     1  LIG1       -0.0568
      2 H          -1.5894    0.4761    1.7833 H       1  LIG1        0.0621
      3 C           0.0315   -0.6563    1.1841 C.2     1  LIG1       -0.0270
      4 C           0.6663   -1.6971    2.0608 C.ar    1  LIG1       -0.0162
      5 C           0.6324   -2.3237    3.2653 C.ar    1  LIG1       -0.0534
      6 H          -0.0147   -2.0907    3.9212 H       1  LIG1        0.0624
      7 C           1.6104   -3.3555    3.5159 C.ar    1  LIG1       -0.0528
      8 H           1.6311   -3.8266    4.3412 H       1  LIG1        0.0624
      9 C           2.5023   -3.6278    2.5260 C.ar    1  LIG1       -0.0093
     10 C           3.6953   -4.4482    2.1129 C.ar    1  LIG1       -0.0096
     11 C           4.5857   -5.4306    2.4643 C.ar    1  LIG1       -0.0534
     12 H           4.5191   -5.9057    3.2845 H       1  LIG1        0.0624
     13 C           5.6024   -5.6873    1.5283 C.ar    1  LIG1       -0.0611
     14 H           6.2495   -6.3567    1.7217 H       1  LIG1        0.0618
     15 C           5.6909   -4.9953    0.3350 C.ar    1  LIG1       -0.0611
     16 H           6.4065   -5.1991   -0.2562 H       1  LIG1        0.0618
     17 C           4.7726   -4.0058   -0.0406 C.ar    1  LIG1       -0.0534
     18 H           4.8334   -3.5382   -0.8645 H       1  LIG1        0.0624
     19 C           3.7691   -3.7612    0.8812 C.ar    1  LIG1       -0.0093
     20 C           2.5534   -2.9363    1.2382 C.ar    1  LIG1       -0.0049
     21 C           1.6348   -1.9875    0.9932 C.ar    1  LIG1       -0.0187
     22 C           0.9756   -0.9402    0.1435 C.3     1  LIG1        0.0519
@<TRIPOS>BOND
     1    18    17    1
     2    16    15    1
     3    17    15   ar
     4    17    19   ar
     5    22    21    1
     6    22     3    1
     7    15    13   ar
     8    19    20    1
     9    19    10   ar
    10    21    20   ar
    11    21     4   ar
    12     1     3    2
    13     1     2    1
    14     3     4    1
    15    20     9   ar
    16    13    14    1
    17    13    11   ar
    18     4     5   ar
    19    10    11   ar
    20    10     9    1
    21    11    12    1
    22     9     7   ar
    23     5     7   ar
    24     5     6    1
    25     7     8    1
