@<TRIPOS>MOLECULE
phenyl (5S^*^,7^*^,10S^*^)-6,13-diaza-3-hydroxy-5-(2-methylpropyl)-13-   (phenoxycarbonyl)-pentacyclo[8.2.2.0^1,3^.0^2,7^.0^7,12^]tetradecane-   6-carboxylate
 71 77 0 0 0
SMALL
GASTEIGER

@<TRIPOS>ATOM
      1 O           9.4570    1.0162   16.9888 O.3     1  LIG1       -0.3859
      2 O           9.2737    3.7839   17.1047 O.2     1  LIG1       -0.2258
      3 O          10.4262    4.9655   18.6524 O.3     1  LIG1       -0.4114
      4 O          13.1554    0.2411   12.1405 O.2     1  LIG1       -0.2258
      5 O          14.4497    1.4805   13.5306 O.3     1  LIG1       -0.4114
      6 C          13.9206    3.0068   17.6374 C.3     1  LIG1       -0.0246
      7 C          12.6381    3.3306   18.4650 C.3     1  LIG1        0.0213
      8 N          11.3915    3.1741   17.6806 N.am    1  LIG1       -0.2575
      9 C          11.5305    2.2635   16.5875 C.3     1  LIG1        0.0817
     10 C          10.5582    1.2085   16.1245 C.3     1  LIG1        0.0967
     11 C          10.3346    0.8867   14.6638 C.3     1  LIG1       -0.0027
     12 C          11.3251   -0.1893   14.1632 C.3     1  LIG1        0.0326
     13 N          12.7344    0.2570   14.3946 N.am    1  LIG1       -0.2574
     14 C          12.9844    0.9773   15.6795 C.3     1  LIG1        0.0532
     15 C          12.6456    2.5106   15.5860 C.3     1  LIG1        0.0061
     16 C          13.7093    3.4162   16.1819 C.3     1  LIG1       -0.0419
     17 C          14.4032    1.5353   17.7014 C.3     1  LIG1       -0.0468
     18 C          14.3215    0.7382   16.3719 C.3     1  LIG1       -0.0302
     19 C          11.8610    0.7761   16.6966 C.3     1  LIG1        0.0364
     20 C          10.2900    3.9512   17.7553 C.2     1  LIG1        0.4087
     21 C           9.3082    5.8402   18.7593 C.ar    1  LIG1        0.1332
     22 C           9.4379    7.0965   18.2064 C.ar    1  LIG1       -0.0192
     23 C           8.4190    8.0210   18.3726 C.ar    1  LIG1       -0.0583
     24 C           7.2736    7.6544   19.0757 C.ar    1  LIG1       -0.0615
     25 C           7.1676    6.3862   19.6071 C.ar    1  LIG1       -0.0583
     26 C           8.1831    5.4656   19.4591 C.ar    1  LIG1       -0.0192
     27 C          13.4042    0.6177   13.2631 C.2     1  LIG1        0.4089
     28 C          15.0060    2.1231   12.4186 C.ar    1  LIG1        0.1332
     29 C          16.3552    1.9975   12.1914 C.ar    1  LIG1       -0.0192
     30 C          16.9384    2.6740   11.1297 C.ar    1  LIG1       -0.0583
     31 C          16.1763    3.4621   10.3164 C.ar    1  LIG1       -0.0615
     32 C          14.8229    3.5986   10.5524 C.ar    1  LIG1       -0.0583
     33 C          14.2235    2.9251   11.6105 C.ar    1  LIG1       -0.0192
     34 C          11.0584   -1.5662   14.7617 C.3     1  LIG1       -0.0317
     35 C          11.7921   -2.7308   14.0855 C.3     1  LIG1       -0.0450
     36 C          11.3817   -4.0479   14.7401 C.3     1  LIG1       -0.0626
     37 C          11.5192   -2.8045   12.5799 C.3     1  LIG1       -0.0626
     38 H           9.0589    1.8630   17.0829 H       1  LIG1        0.2103
     39 H          14.6265    3.5468   17.9915 H       1  LIG1        0.0316
     40 H          12.6875    4.2442   18.7589 H       1  LIG1        0.0468
     41 H          12.6012    2.7497   19.2233 H       1  LIG1        0.0468
     42 H           9.4385    0.5679   14.5386 H       1  LIG1        0.0312
     43 H          10.4521    1.6937   14.1550 H       1  LIG1        0.0312
     44 H          11.2046   -0.2790   13.2059 H       1  LIG1        0.0503
     45 H          12.3367    2.7796   14.7203 H       1  LIG1        0.0344
     46 H          14.5282    3.3176   15.6896 H       1  LIG1        0.0272
     47 H          13.4109    4.3338   16.1338 H       1  LIG1        0.0272
     48 H          15.3051    1.5343   18.0117 H       1  LIG1        0.0269
     49 H          13.8415    1.0760   18.3348 H       1  LIG1        0.0269
     50 H          14.4226   -0.1993   16.5377 H       1  LIG1        0.0286
     51 H          15.0265    1.0361   15.7905 H       1  LIG1        0.0286
     52 H          11.9691    0.3088   17.5271 H       1  LIG1        0.0372
     53 H          10.2347    7.3326   17.7290 H       1  LIG1        0.0654
     54 H           8.4973    8.9067   17.9915 H       1  LIG1        0.0619
     55 H           6.5611    8.2791   19.2031 H       1  LIG1        0.0618
     56 H           6.3780    6.1371   20.0916 H       1  LIG1        0.0619
     57 H           8.1155    4.5829   19.8291 H       1  LIG1        0.0654
     58 H          16.8778    1.4346   12.7617 H       1  LIG1        0.0654
     59 H          17.8859    2.6003   10.9847 H       1  LIG1        0.0619
     60 H          16.5725    3.9253    9.5713 H       1  LIG1        0.0618
     61 H          14.2868    4.1545    9.9751 H       1  LIG1        0.0619
     62 H          13.2893    3.0187   11.7924 H       1  LIG1        0.0654
     63 H          11.3189   -1.5343   15.6896 H       1  LIG1        0.0286
     64 H          10.1226   -1.7435   14.7002 H       1  LIG1        0.0286
     65 H          12.7396   -2.6103   14.2155 H       1  LIG1        0.0296
     66 H          11.9071   -4.7632   14.3771 H       1  LIG1        0.0232
     67 H          10.4515   -4.2143   14.5669 H       1  LIG1        0.0232
     68 H          11.5254   -3.9941   15.6876 H       1  LIG1        0.0232
     69 H          11.9109   -3.6055   12.2225 H       1  LIG1        0.0232
     70 H          11.9035   -2.0394   12.1458 H       1  LIG1        0.0232
     71 H          10.5716   -2.8195   12.4285 H       1  LIG1        0.0232
@<TRIPOS>BOND
     1    60    31    1
     2    61    32    1
     3    31    32   ar
     4    31    30   ar
     5    32    33   ar
     6    59    30    1
     7    30    29   ar
     8    33    62    1
     9    33    28   ar
    10     4    27    2
    11    70    37    1
    12    29    28   ar
    13    29    58    1
    14    69    37    1
    15    28     5    1
    16    71    37    1
    17    37    35    1
    18    44    12    1
    19    27     5    1
    20    27    13   am
    21    35    65    1
    22    35    36    1
    23    35    34    1
    24    43    11    1
    25    12    13    1
    26    12    11    1
    27    12    34    1
    28    66    36    1
    29    13    14    1
    30    42    11    1
    31    67    36    1
    32    11    10    1
    33    64    34    1
    34    45    15    1
    35    36    68    1
    36    34    63    1
    37    15    14    1
    38    15    16    1
    39    15     9    1
    40    14    18    1
    41    14    19    1
    42    46    16    1
    43    51    18    1
    44    10     9    1
    45    10    19    1
    46    10     1    1
    47    47    16    1
    48    16     6    1
    49    18    50    1
    50    18    17    1
    51     9    19    1
    52     9     8    1
    53    19    52    1
    54     1    38    1
    55     2    20    2
    56     6    17    1
    57     6    39    1
    58     6     7    1
    59     8    20   am
    60     8     7    1
    61    17    48    1
    62    17    49    1
    63    53    22    1
    64    20     3    1
    65    54    23    1
    66    22    23   ar
    67    22    21   ar
    68    23    24   ar
    69     7    40    1
    70     7    41    1
    71     3    21    1
    72    21    26   ar
    73    24    55    1
    74    24    25   ar
    75    26    25   ar
    76    26    57    1
    77    25    56    1
