@<TRIPOS>MOLECULE
1507544.cif
 78 78 0 0 0
SMALL
GASTEIGER

@<TRIPOS>ATOM
      1 S           5.4251    5.6312   -1.2751 S.O2    1  LIG1        0.1551
      2 O           4.2971    4.8450   -0.8656 O.2     1  LIG1       -0.1326
      3 O           6.6403    5.3434   -0.5486 O.2     1  LIG1       -0.1326
      4 O           5.9335    3.1041   -2.7190 O.2     1  LIG1       -0.2241
      5 O           6.3852    4.0731   -4.7096 O.3     1  LIG1       -0.4492
      6 N           5.1192    7.1495   -1.4039 N.pl3   1  LIG1       -0.0818
      7 N           5.7746    5.3559   -2.9541 N.am    1  LIG1       -0.0888
      8 N           7.2079    1.2466    0.8725 N.4     2  LIG2        0.2433
      9 C           5.4849    7.6076   -2.6637 C.ar    1  LIG1        0.0988
     10 C           5.8706    6.6358   -3.5800 C.ar    1  LIG1        0.0888
     11 C           6.2619    6.9662   -4.8709 C.ar    1  LIG1       -0.0365
     12 H           6.4901    6.2902   -5.4980 H       1  LIG1        0.0637
     13 C           6.3120    8.3101   -5.2236 C.ar    1  LIG1       -0.0598
     14 H           6.6013    8.5613   -6.0927 H       1  LIG1        0.0618
     15 C           5.9453    9.2763   -4.3200 C.ar    1  LIG1       -0.0598
     16 H           5.9732   10.1898   -4.5816 H       1  LIG1        0.0618
     17 C           5.5355    8.9556   -3.0394 C.ar    1  LIG1       -0.0353
     18 H           5.2923    9.6372   -2.4251 H       1  LIG1        0.0638
     19 C           6.0388    4.0731   -3.4186 C.2     1  LIG1        0.4281
     20 C           6.6771    2.7654   -5.2686 C.3     1  LIG1        0.0913
     21 H           6.5125    2.7821   -6.2448 H       1  LIG1        0.0695
     22 H           6.0697    2.0949   -4.8675 H       1  LIG1        0.0695
     23 C           8.1103    2.3600   -5.0092 C.3     1  LIG1       -0.0305
     24 H           8.2704    1.4688   -5.3850 H       1  LIG1        0.0262
     25 H           8.2753    2.3420   -4.0434 H       1  LIG1        0.0262
     26 H           8.7138    3.0056   -5.4323 H       1  LIG1        0.0262
     27 C           7.4976    0.3346    2.0620 C.3     2  LIG2       -0.0301
     28 H           8.0251   -0.4373    1.7347 H       2  LIG2        0.0815
     29 H           8.0684    0.8329    2.6983 H       2  LIG2        0.0815
     30 C           6.3121   -0.1999    2.8170 C.3     2  LIG2       -0.0127
     31 H           5.7588   -0.7608    2.2199 H       2  LIG2        0.0317
     32 H           5.7551    0.5511    3.1409 H       2  LIG2        0.0317
     33 C           6.8048   -1.0342    4.0088 C.3     2  LIG2       -0.0511
     34 H           7.4326   -1.7270    3.6826 H       2  LIG2        0.0264
     35 H           7.2989   -0.4470    4.6347 H       2  LIG2        0.0264
     36 C           5.6688   -1.7075    4.7534 C.3     2  LIG2       -0.0651
     37 H           6.0290   -2.2101    5.5129 H       2  LIG2        0.0230
     38 H           5.1993   -2.3198    4.1494 H       2  LIG2        0.0230
     39 H           5.0435   -1.0273    5.0796 H       2  LIG2        0.0230
     40 C           8.5750    1.6534    0.3239 C.3     2  LIG2       -0.0301
     41 H           9.0701    2.1212    1.0408 H       2  LIG2        0.0815
     42 H           9.0788    0.8288    0.1060 H       2  LIG2        0.0815
     43 C           8.5660    2.5363   -0.8990 C.3     2  LIG2       -0.0127
     44 H           8.0231    3.3443   -0.7204 H       2  LIG2        0.0317
     45 H           8.1539    2.0504   -1.6563 H       2  LIG2        0.0317
     46 C           9.9884    2.9514   -1.2736 C.3     2  LIG2       -0.0511
     47 H           9.9366    3.6830   -1.9387 H       2  LIG2        0.0264
     48 H          10.4314    3.3151   -0.4657 H       2  LIG2        0.0264
     49 C          10.8607    1.8450   -1.8419 C.3     2  LIG2       -0.0651
     50 H          11.7521    2.2004   -2.0390 H       2  LIG2        0.0230
     51 H          10.4561    1.5007   -2.6648 H       2  LIG2        0.0230
     52 H          10.9354    1.1189   -1.1872 H       2  LIG2        0.0230
     53 C           6.3820    0.5373   -0.1971 C.3     2  LIG2       -0.0301
     54 H           5.5249    0.2540    0.2098 H       2  LIG2        0.0815
     55 H           6.1711    1.1897   -0.9106 H       2  LIG2        0.0815
     56 C           7.0223   -0.6691   -0.8345 C.3     2  LIG2       -0.0127
     57 H           7.2585   -1.3258   -0.1314 H       2  LIG2        0.0317
     58 H           7.8581   -0.3957   -1.2898 H       2  LIG2        0.0317
     59 C           6.0802   -1.3299   -1.8522 C.3     2  LIG2       -0.0511
     60 H           6.4937   -2.1740   -2.1635 H       2  LIG2        0.0264
     61 H           5.2342   -1.5632   -1.3947 H       2  LIG2        0.0264
     62 C           5.7557   -0.4776   -3.0613 C.3     2  LIG2       -0.0651
     63 H           5.1442   -0.9662   -3.6515 H       2  LIG2        0.0230
     64 H           6.5819   -0.2707   -3.5466 H       2  LIG2        0.0230
     65 H           5.3313    0.3568   -2.7686 H       2  LIG2        0.0230
     66 C           6.3712    2.4503    1.3025 C.3     2  LIG2       -0.0301
     67 H           6.1820    3.0028    0.5025 H       2  LIG2        0.0815
     68 H           5.5042    2.1226    1.6494 H       2  LIG2        0.0815
     69 C           7.0021    3.3346    2.3525 C.3     2  LIG2       -0.0127
     70 H           7.8585    3.6955    2.0102 H       2  LIG2        0.0317
     71 H           7.1960    2.7987    3.1616 H       2  LIG2        0.0317
     72 C           6.0700    4.4882    2.7156 C.3     2  LIG2       -0.0511
     73 H           5.8412    4.9908    1.8937 H       2  LIG2        0.0264
     74 H           5.2303    4.1217    3.0902 H       2  LIG2        0.0264
     75 C           6.6868    5.4364    3.7195 C.3     2  LIG2       -0.0651
     76 H           6.0444    6.1444    3.9373 H       2  LIG2        0.0230
     77 H           7.4958    5.8362    3.3380 H       2  LIG2        0.0230
     78 H           6.9181    4.9436    4.5344 H       2  LIG2        0.0230
@<TRIPOS>BOND
     1    21    20    1
     2    14    13    1
     3    12    11    1
     4    26    23    1
     5    24    23    1
     6    20    23    1
     7    20    22    1
     8    20     5    1
     9    13    11   ar
    10    13    15   ar
    11    23    25    1
    12    11    10   ar
    13     5    19    1
    14    16    15    1
    15    15    17   ar
    16    63    62    1
    17    10     7    1
    18    10     9   ar
    19    64    62    1
    20    19     7   am
    21    19     4    2
    22    62    65    1
    23    62    59    1
    24    17     9   ar
    25    17    18    1
    26     7     1    1
    27    51    49    1
    28     9     6    1
    29    60    59    1
    30    50    49    1
    31    47    46    1
    32    59    61    1
    33    59    56    1
    34    49    46    1
    35    49    52    1
    36    45    43    1
    37     6     1    1
    38    58    56    1
    39     1     2    2
    40     1     3    2
    41    46    43    1
    42    46    48    1
    43    55    53    1
    44    43    44    1
    45    43    40    1
    46    56    53    1
    47    56    57    1
    48    53    54    1
    49    53     8    1
    50    42    40    1
    51    40     8    1
    52    40    41    1
    53    67    66    1
    54     8    66    1
    55     8    27    1
    56    66    68    1
    57    66    69    1
    58    28    27    1
    59    73    72    1
    60    70    69    1
    61    27    29    1
    62    27    30    1
    63    31    30    1
    64    69    72    1
    65    69    71    1
    66    72    74    1
    67    72    75    1
    68    30    32    1
    69    30    33    1
    70    77    75    1
    71    34    33    1
    72    75    76    1
    73    75    78    1
    74    33    35    1
    75    33    36    1
    76    38    36    1
    77    36    39    1
    78    36    37    1
