@<TRIPOS>MOLECULE
?
 48 52 0 0 0
SMALL
GASTEIGER

@<TRIPOS>ATOM
      1 CL          6.4300    6.6098    1.6066 Cl      1  LIG1       -0.0835
      2 S           2.5670   -0.7029    1.3622 S.3     1  LIG1       -0.0519
      3 O           0.6116    3.1478    0.3720 O.2     1  LIG1       -0.2909
      4 O           3.5519   -1.0977    6.6540 O.2     1  LIG1       -0.2434
      5 O           1.1935    3.0284    6.6435 O.2     1  LIG1       -0.2450
      6 O           0.7220    4.5507    5.0487 O.3     1  LIG1       -0.4615
      7 N           2.7486    0.5271    3.6517 N.am    1  LIG1       -0.1766
      8 N           2.5533    0.8102    5.8502 N.am    1  LIG1       -0.1716
      9 H           2.3547    1.1851    6.6214 H       1  LIG1        0.3011
     10 C           1.3700    1.0618   -0.4070 C.ar    1  LIG1        0.0323
     11 C           0.8967    1.3587   -1.6989 C.ar    1  LIG1       -0.0502
     12 H           0.5180    2.2117   -1.8757 H       1  LIG1        0.0625
     13 C           0.9780    0.4239   -2.7109 C.ar    1  LIG1       -0.0610
     14 H           0.6534    0.6351   -3.5788 H       1  LIG1        0.0618
     15 C           1.5360   -0.8294   -2.4623 C.ar    1  LIG1       -0.0607
     16 H           1.5779   -1.4746   -3.1589 H       1  LIG1        0.0618
     17 C           2.0264   -1.1370   -1.2146 C.ar    1  LIG1       -0.0472
     18 H           2.4196   -1.9866   -1.0517 H       1  LIG1        0.0629
     19 C           1.9427   -0.1881   -0.1824 C.ar    1  LIG1        0.0261
     20 C           2.3333    0.7096    2.3350 C.2     1  LIG1        0.1526
     21 C           1.7743    1.8895    1.9585 C.3     1  LIG1        0.1322
     22 C           1.2120    2.1076    0.6372 C.2     1  LIG1        0.1809
     23 C           3.2617   -0.7044    4.2517 C.3     1  LIG1        0.1846
     24 H           4.1980   -0.8749    3.9792 H       1  LIG1        0.0853
     25 H           2.7035   -1.4840    4.0049 H       1  LIG1        0.0853
     26 C           3.1655   -0.4045    5.7379 C.2     1  LIG1        0.3414
     27 C           2.2793    1.3883    4.6281 C.2     1  LIG1        0.2809
     28 C           1.6917    2.5667    4.3569 C.2     1  LIG1        0.1300
     29 C           1.7044    3.0675    2.9266 C.3     1  LIG1        0.0454
     30 H           0.8520    3.5625    2.7585 H       1  LIG1        0.0417
     31 C           2.8757    4.0160    2.6503 C.ar    1  LIG1       -0.0379
     32 C           4.1217    3.7890    3.2227 C.ar    1  LIG1       -0.0566
     33 H           4.2262    3.0746    3.8396 H       1  LIG1        0.0621
     34 C           5.2173    4.5836    2.9117 C.ar    1  LIG1       -0.0431
     35 H           6.0657    4.4127    3.3033 H       1  LIG1        0.0632
     36 C           5.0509    5.6277    2.0229 C.ar    1  LIG1        0.0410
     37 C           3.8171    5.8928    1.4560 C.ar    1  LIG1       -0.0431
     38 H           3.7142    6.6210    0.8546 H       1  LIG1        0.0632
     39 C           2.7350    5.0897    1.7717 C.ar    1  LIG1       -0.0566
     40 H           1.8865    5.2719    1.3860 H       1  LIG1        0.0621
     41 C           1.1958    3.3747    5.4626 C.2     1  LIG1        0.3433
     42 C           0.1541    5.4285    6.0666 C.3     1  LIG1        0.0900
     43 H           0.8128    5.5955    6.7867 H       1  LIG1        0.0695
     44 H          -0.6543    5.0189    6.4647 H       1  LIG1        0.0695
     45 C          -0.1967    6.7101    5.3690 C.3     1  LIG1       -0.0306
     46 H          -0.8707    6.5335    4.6795 H       1  LIG1        0.0262
     47 H           0.6069    7.0859    4.9513 H       1  LIG1        0.0262
     48 H          -0.5550    7.3494    6.0202 H       1  LIG1        0.0262
@<TRIPOS>BOND
     1    14    13    1
     2    16    15    1
     3    13    15   ar
     4    13    11   ar
     5    15    17   ar
     6    12    11    1
     7    11    10   ar
     8    17    18    1
     9    17    19   ar
    10    10    19   ar
    11    10    22    1
    12    19     2    1
    13     3    22    2
    14    22    21    1
    15    38    37    1
    16     2    20    2
    17    40    39    1
    18    37    39   ar
    19    37    36   ar
    20     1    36    1
    21    39    31   ar
    22    21    20    1
    23    21    29    1
    24    36    34   ar
    25    20     7    1
    26    31    29    1
    27    31    32   ar
    28    30    29    1
    29    34    32   ar
    30    34    35    1
    31    29    28    1
    32    32    33    1
    33     7    23    1
    34     7    27    1
    35    24    23    1
    36    25    23    1
    37    23    26    1
    38    28    27    2
    39    28    41    1
    40    27     8    1
    41    46    45    1
    42    47    45    1
    43     6    41    1
    44     6    42    1
    45    45    48    1
    46    45    42    1
    47    41     5    2
    48    26     8   am
    49    26     4    2
    50     8     9    1
    51    42    44    1
    52    42    43    1
