@<TRIPOS>MOLECULE
?
 37 38 0 0 0
SMALL
GASTEIGER

@<TRIPOS>ATOM
      1 O          -0.5340    2.4669   11.3611 O.3     1  LIG1       -0.3825
      2 H          -0.6871    3.1675   11.7979 H       1  LIG1        0.2107
      3 C           1.6286    2.0105    8.3992 C.ar    1  LIG1       -0.0558
      4 H           2.3288    2.6321    8.5622 H       1  LIG1        0.0621
      5 C           1.6057    1.2993    7.2135 C.ar    1  LIG1       -0.0614
      6 H           2.2841    1.4412    6.5639 H       1  LIG1        0.0618
      7 C           0.5970    0.3803    6.9678 C.ar    1  LIG1       -0.0617
      8 H           0.5859   -0.1126    6.1563 H       1  LIG1        0.0618
      9 C          -0.3923    0.1871    7.9131 C.ar    1  LIG1       -0.0614
     10 H          -1.0855   -0.4411    7.7494 H       1  LIG1        0.0618
     11 C          -0.3777    0.9067    9.0998 C.ar    1  LIG1       -0.0558
     12 H          -1.0641    0.7715    9.7418 H       1  LIG1        0.0621
     13 C           0.6353    1.8234    9.3543 C.ar    1  LIG1       -0.0147
     14 C           0.7047    2.6076   10.6494 C.3     1  LIG1        0.1056
     15 H           0.8427    3.5742   10.4332 H       1  LIG1        0.0694
     16 C           1.8630    2.1278   11.5038 C.2     1  LIG1       -0.0095
     17 H           1.8907    1.1735   11.6789 H       1  LIG1        0.0689
     18 C           2.7941    2.9130   11.9698 C.1     1  LIG1       -0.1252
     19 C           3.7206    3.7028   12.4490 C.2     1  LIG1       -0.0389
     20 H           4.5361    3.9022   11.8905 H       1  LIG1        0.0662
     21 C           3.6826    4.3424   13.8220 C.3     1  LIG1       -0.0154
     22 H           3.7788    5.3306   13.7037 H       1  LIG1        0.0349
     23 C           2.3737    4.0855   14.5514 C.3     1  LIG1       -0.0462
     24 H           2.2127    3.1095   14.5947 H       1  LIG1        0.0271
     25 H           1.6308    4.4927   14.0392 H       1  LIG1        0.0271
     26 C           2.3754    4.6567   15.9719 C.3     1  LIG1       -0.0525
     27 H           2.4156    5.6450   15.9281 H       1  LIG1        0.0265
     28 H           1.5342    4.4046   16.4283 H       1  LIG1        0.0265
     29 C           3.5656    4.1364   16.7784 C.3     1  LIG1       -0.0530
     30 H           3.5728    4.5667   17.6704 H       1  LIG1        0.0265
     31 H           3.4731    3.1595   16.9093 H       1  LIG1        0.0265
     32 C           4.8713    4.4296   16.0648 C.3     1  LIG1       -0.0525
     33 H           5.6216    4.0445   16.5834 H       1  LIG1        0.0265
     34 H           5.0052    5.4094   16.0159 H       1  LIG1        0.0265
     35 C           4.8800    3.8461   14.6504 C.3     1  LIG1       -0.0462
     36 H           4.8527    2.8578   14.7041 H       1  LIG1        0.0271
     37 H           5.7205    4.1039   14.1955 H       1  LIG1        0.0271
@<TRIPOS>BOND
     1     8     7    1
     2     6     5    1
     3     7     5   ar
     4     7     9   ar
     5     5     3   ar
     6    10     9    1
     7     9    11   ar
     8     3     4    1
     9     3    13   ar
    10    11    13   ar
    11    11    12    1
    12    13    14    1
    13    15    14    1
    14    14     1    1
    15    14    16    1
    16     1     2    1
    17    16    17    1
    18    16    18    2
    19    20    19    1
    20    18    19    2
    21    19    21    1
    22    22    21    1
    23    21    23    1
    24    21    35    1
    25    25    23    1
    26    37    35    1
    27    23    24    1
    28    23    26    1
    29    35    36    1
    30    35    32    1
    31    27    26    1
    32    26    28    1
    33    26    29    1
    34    34    32    1
    35    32    33    1
    36    32    29    1
    37    29    31    1
    38    29    30    1
