@<TRIPOS>MOLECULE
C14 H16 O2
 64 66 0 0 0
SMALL
GASTEIGER

@<TRIPOS>ATOM
      1 O           7.0429    4.2141    2.6934 O.2     1  LIG1       -0.2886
      2 O           5.2559    4.9094    0.8744 O.3     1  LIG1       -0.3761
      3 O           0.7124    8.2621    4.0385 O.2     2  LIG2       -0.2886
      4 O           0.6198    7.7077    6.6285 O.3     2  LIG2       -0.3761
      5 C           6.0163    5.3452    4.5270 C.ar    1  LIG1        0.0239
      6 C           6.1784    4.9824    3.1089 C.2     1  LIG1        0.1991
      7 C           5.2232    5.6270    2.0989 C.3     1  LIG1        0.1513
      8 C           3.7722    5.5945    2.6751 C.3     1  LIG1        0.0088
      9 C           3.7772    6.3769    3.9886 C.3     1  LIG1       -0.0185
     10 C           4.8623    6.0131    4.9660 C.ar    1  LIG1       -0.0362
     11 C           4.7439    6.3435    6.3087 C.ar    1  LIG1       -0.0579
     12 C           5.7572    6.0486    7.2038 C.ar    1  LIG1       -0.0615
     13 C           6.9129    5.3756    6.7837 C.ar    1  LIG1       -0.0611
     14 C           7.0262    5.0189    5.4445 C.ar    1  LIG1       -0.0509
     15 C           5.7176    7.0489    1.9051 C.2     1  LIG1       -0.0519
     16 C           5.8228    7.6377    0.7288 C.2     1  LIG1       -0.0995
     17 C           2.7905    6.2097    1.6771 C.3     1  LIG1       -0.0562
     18 C           3.3615    4.1260    2.9271 C.3     1  LIG1       -0.0562
     19 C          -1.2856    7.1472    3.4193 C.ar    2  LIG2        0.0239
     20 C          -0.2194    7.5293    4.3624 C.2     2  LIG2        0.1991
     21 C          -0.2712    6.9830    5.7908 C.3     2  LIG2        0.1513
     22 C          -1.7246    7.1138    6.3344 C.3     2  LIG2        0.0088
     23 C          -2.6793    6.3709    5.3982 C.3     2  LIG2       -0.0185
     24 C          -2.4808    6.6111    3.9183 C.ar    2  LIG2       -0.0362
     25 C          -3.4649    6.2715    2.9872 C.ar    2  LIG2       -0.0579
     26 C          -3.2874    6.4600    1.6376 C.ar    2  LIG2       -0.0615
     27 C          -2.0903    6.9962    1.1609 C.ar    2  LIG2       -0.0611
     28 C          -1.0992    7.3489    2.0475 C.ar    2  LIG2       -0.0509
     29 C           0.1601    5.5185    5.7188 C.2     2  LIG2       -0.0519
     30 C           1.2147    5.0259    6.3396 C.2     2  LIG2       -0.0995
     31 C          -1.8141    6.5128    7.7371 C.3     2  LIG2       -0.0562
     32 C          -2.1019    8.6107    6.4030 C.3     2  LIG2       -0.0562
     33 H           5.9523    4.6114    0.7888 H       1  LIG1        0.2112
     34 H           1.2684    8.1688    6.1904 H       2  LIG2        0.2112
     35 H           3.8658    7.3002    3.7743 H       1  LIG1        0.0320
     36 H           2.9377    6.2330    4.4122 H       1  LIG1        0.0320
     37 H           3.9654    6.7844    6.6208 H       1  LIG1        0.0620
     38 H           5.6724    6.3040    8.1127 H       1  LIG1        0.0618
     39 H           7.5997    5.1658    7.4010 H       1  LIG1        0.0618
     40 H           7.7963    4.5476    5.1495 H       1  LIG1        0.0625
     41 H           5.9613    7.5455    2.6734 H       1  LIG1        0.0599
     42 H           6.1398    8.5306    0.6705 H       1  LIG1        0.0533
     43 H           5.5832    7.1675   -0.0634 H       1  LIG1        0.0533
     44 H           1.9341    6.2766    2.0800 H       1  LIG1        0.0236
     45 H           3.0951    7.0773    1.4336 H       1  LIG1        0.0236
     46 H           2.7396    5.6624    0.9054 H       1  LIG1        0.0236
     47 H           3.4069    3.6415    2.1126 H       1  LIG1        0.0236
     48 H           2.4732    4.1026    3.2632 H       1  LIG1        0.0236
     49 H           3.9507    3.7398    3.5633 H       1  LIG1        0.0236
     50 H          -2.5798    5.4405    5.5559 H       2  LIG2        0.0320
     51 H          -3.5658    6.6364    5.6177 H       2  LIG2        0.0320
     52 H          -4.2825    5.8996    3.2975 H       2  LIG2        0.0620
     53 H          -3.9730    6.2219    1.0289 H       2  LIG2        0.0618
     54 H          -1.9597    7.1188    0.2298 H       2  LIG2        0.0618
     55 H          -0.2941    7.7330    1.7268 H       2  LIG2        0.0625
     56 H          -0.3679    4.9297    5.1924 H       2  LIG2        0.0599
     57 H           1.4214    4.1067    6.2470 H       2  LIG2        0.0533
     58 H           1.7553    5.5935    6.8677 H       2  LIG2        0.0533
     59 H          -1.5758    5.5945    7.7045 H       2  LIG2        0.0236
     60 H          -2.7079    6.5969    8.0578 H       2  LIG2        0.0236
     61 H          -1.2262    6.9749    8.3219 H       2  LIG2        0.0236
     62 H          -2.1721    8.9614    5.5268 H       2  LIG2        0.0236
     63 H          -1.4270    9.0850    6.8815 H       2  LIG2        0.0236
     64 H          -2.9312    8.7060    6.8557 H       2  LIG2        0.0236
@<TRIPOS>BOND
     1    43    16    1
     2    54    27    1
     3    42    16    1
     4    16    15    2
     5    33     2    1
     6     2     7    1
     7    46    17    1
     8    53    26    1
     9    27    26   ar
    10    27    28   ar
    11    45    17    1
    12    26    25   ar
    13    17    44    1
    14    17     8    1
    15    55    28    1
    16    15     7    1
    17    15    41    1
    18    28    19   ar
    19     7     8    1
    20     7     6    1
    21    47    18    1
    22     8    18    1
    23     8     9    1
    24     1     6    2
    25    18    48    1
    26    18    49    1
    27    25    52    1
    28    25    24   ar
    29     6     5    1
    30    19    24   ar
    31    19    20    1
    32    35     9    1
    33    24    23    1
    34     9    36    1
    35     9    10    1
    36     3    20    2
    37    20    21    1
    38     5    10   ar
    39     5    14   ar
    40    10    11   ar
    41    40    14    1
    42    56    29    1
    43    23    50    1
    44    23    51    1
    45    23    22    1
    46    14    13   ar
    47    62    32    1
    48    29    21    1
    49    29    30    2
    50    21    22    1
    51    21     4    1
    52    34     4    1
    53    57    30    1
    54    11    37    1
    55    11    12   ar
    56    22    32    1
    57    22    31    1
    58    30    58    1
    59    32    64    1
    60    32    63    1
    61    13    12   ar
    62    13    39    1
    63    12    38    1
    64    59    31    1
    65    31    60    1
    66    31    61    1
