@<TRIPOS>MOLECULE
?
 65 67 0 0 0
SMALL
GASTEIGER

@<TRIPOS>ATOM
      1 O           4.0589    8.5832    6.1981 O.3     1  LIG1       -0.4481
      2 O           5.7876    7.1992    5.9361 O.2     1  LIG1       -0.2258
      3 O           7.6519   10.8937    5.1003 O.2     1  LIG1       -0.2748
      4 O           7.2595    8.0145    9.8673 O.3     1  LIG1       -0.4445
      5 O           6.8909    9.8379    8.5578 O.2     1  LIG1       -0.2262
      6 N           8.8645    8.7163    8.4956 N.am    1  LIG1       -0.2644
      7 N           5.9615    9.4889    5.4970 N.am    1  LIG1       -0.2006
      8 C           9.7132    7.5888    8.9080 C.3     1  LIG1        0.0181
      9 C          11.0043    8.0852    9.5000 C.3     1  LIG1       -0.0370
     10 C          11.7268    8.9985    8.5342 C.3     1  LIG1       -0.0500
     11 C          10.8167   10.1560    8.1228 C.3     1  LIG1       -0.0341
     12 C           9.4743    9.6836    7.5612 C.3     1  LIG1        0.0298
     13 C           9.6142    9.1274    6.1401 C.3     1  LIG1       -0.0233
     14 C           8.3163    8.6342    5.5177 C.3     1  LIG1        0.0351
     15 C           7.3169    9.7536    5.3781 C.2     1  LIG1        0.2276
     16 C           8.5628    8.0883    4.1118 C.3     1  LIG1       -0.0540
     17 C           5.3360    8.3110    5.8842 C.2     1  LIG1        0.4097
     18 C           3.8461   10.0257    6.1960 C.3     1  LIG1        0.1134
     19 C           4.9710   10.5677    5.3367 C.3     1  LIG1        0.0749
     20 C           4.6122   10.7907    3.8618 C.3     1  LIG1       -0.0052
     21 C           3.9795    9.5988    3.1938 C.ar    1  LIG1       -0.0455
     22 C           4.7580    8.6338    2.5929 C.ar    1  LIG1       -0.0585
     23 C           4.1553    7.4864    2.0553 C.ar    1  LIG1       -0.0615
     24 C           2.7929    7.3244    2.1363 C.ar    1  LIG1       -0.0617
     25 C           2.0280    8.2942    2.7009 C.ar    1  LIG1       -0.0615
     26 C           2.6118    9.4144    3.2167 C.ar    1  LIG1       -0.0585
     27 C           7.6150    8.9323    8.9386 C.2     1  LIG1        0.4036
     28 C           5.9814    8.0956   10.5659 C.3     1  LIG1        0.1068
     29 C           6.0384    6.8970   11.4835 C.3     1  LIG1       -0.0253
     30 C           5.9285    9.3684   11.3815 C.3     1  LIG1       -0.0253
     31 C           4.8397    7.9807    9.5912 C.3     1  LIG1       -0.0253
     32 H          10.2822    8.3913    6.1228 H       1  LIG1        0.0290
     33 H           8.8790   10.4636    7.5425 H       1  LIG1        0.0502
     34 H           9.2106    7.0955    9.5635 H       1  LIG1        0.0466
     35 H          11.9886    8.5105    7.7189 H       1  LIG1        0.0266
     36 H           6.0050    6.0714   10.9056 H       1  LIG1        0.0268
     37 H           5.4527   11.0164    3.3575 H       1  LIG1        0.0332
     38 H           9.8461    7.0203    8.1049 H       1  LIG1        0.0466
     39 H          10.0083    9.8125    5.6081 H       1  LIG1        0.0290
     40 H          10.6217   10.7290    8.9523 H       1  LIG1        0.0283
     41 H           7.9510    8.0016    6.0263 H       1  LIG1        0.0392
     42 H          10.8368    8.5899   10.3710 H       1  LIG1        0.0280
     43 H           5.7144    8.7759    2.4924 H       1  LIG1        0.0620
     44 H           5.8953   10.1783   10.8147 H       1  LIG1        0.0268
     45 H           3.9080   10.3350    7.1810 H       1  LIG1        0.0717
     46 H           4.7095    8.7884    9.0400 H       1  LIG1        0.0268
     47 H          11.5574    7.3672    9.7177 H       1  LIG1        0.0280
     48 H           2.9491   10.2128    5.8266 H       1  LIG1        0.0717
     49 H          11.2560   10.7217    7.4094 H       1  LIG1        0.0283
     50 H           8.9645    8.7362    3.4829 H       1  LIG1        0.0237
     51 H           7.7231    7.7016    3.6936 H       1  LIG1        0.0237
     52 H          12.5925    9.3318    8.9668 H       1  LIG1        0.0266
     53 H           5.0898    9.3423   11.9793 H       1  LIG1        0.0268
     54 H           6.8903    6.8970   12.0681 H       1  LIG1        0.0268
     55 H           3.9793    7.8584   10.1159 H       1  LIG1        0.0268
     56 H           9.3094    7.3881    4.0830 H       1  LIG1        0.0237
     57 H           6.6975    9.3945   12.0570 H       1  LIG1        0.0268
     58 H           2.3503    6.5939    1.7747 H       1  LIG1        0.0618
     59 H           4.0436   11.5264    3.8489 H       1  LIG1        0.0332
     60 H           5.2134    6.8761   12.0570 H       1  LIG1        0.0268
     61 H           5.3595   11.3508    5.6846 H       1  LIG1        0.0543
     62 H           4.9112    7.3359    9.0178 H       1  LIG1        0.0268
     63 H           4.7444    6.9283    1.6860 H       1  LIG1        0.0618
     64 H           0.9783    8.1196    2.7841 H       1  LIG1        0.0618
     65 H           2.0637   10.0216    3.6604 H       1  LIG1        0.0620
@<TRIPOS>BOND
     1    63    23    1
     2    58    24    1
     3    23    24   ar
     4    23    22   ar
     5    24    25   ar
     6    43    22    1
     7    22    21   ar
     8    25    64    1
     9    25    26   ar
    10    21    26   ar
    11    21    20    1
    12    26    65    1
    13    37    20    1
    14    50    16    1
    15    51    16    1
    16    59    20    1
    17    20    19    1
    18    56    16    1
    19    16    14    1
    20     3    15    2
    21    19     7    1
    22    19    61    1
    23    19    18    1
    24    15     7   am
    25    15    14    1
    26     7    17   am
    27    14    41    1
    28    14    13    1
    29    39    13    1
    30    48    18    1
    31    17     2    2
    32    17     1    1
    33    32    13    1
    34    13    12    1
    35    18     1    1
    36    18    45    1
    37    49    11    1
    38    33    12    1
    39    12    11    1
    40    12     6    1
    41    35    10    1
    42    38     8    1
    43    11    10    1
    44    11    40    1
    45     6     8    1
    46     6    27   am
    47    10    52    1
    48    10     9    1
    49     5    27    2
    50     8     9    1
    51     8    34    1
    52    27     4    1
    53    62    31    1
    54    46    31    1
    55     9    47    1
    56     9    42    1
    57    31    55    1
    58    31    28    1
    59     4    28    1
    60    28    30    1
    61    28    29    1
    62    44    30    1
    63    36    29    1
    64    30    53    1
    65    30    57    1
    66    29    60    1
    67    29    54    1
