@<TRIPOS>MOLECULE
?
 39 42 0 0 0
SMALL
GASTEIGER

@<TRIPOS>ATOM
      1 I          -2.2248   13.3947    5.0045 I       1  LIG1       -0.0844
      2 O           2.0074   12.8464    7.3934 O.3     1  LIG1       -0.3665
      3 O           1.6725    6.6161    6.9905 O.3     1  LIG1       -0.4526
      4 O           2.7425    7.3589    5.0748 O.3     1  LIG1       -0.4526
      5 C           1.9830   12.1703    6.1255 C.3     1  LIG1        0.0942
      6 H           2.8581   12.3273    5.6682 H       1  LIG1        0.0655
      7 C           0.8494   12.7968    5.2473 C.3     1  LIG1        0.0324
      8 C           1.1678   14.3036    5.1252 C.ar    1  LIG1       -0.0326
      9 C           0.7448   15.0520    4.0173 C.ar    1  LIG1       -0.0576
     10 H           0.2325   14.6318    3.3369 H       1  LIG1        0.0621
     11 C           1.0652   16.3988    3.9018 C.ar    1  LIG1       -0.0615
     12 H           0.7687   16.8932    3.1464 H       1  LIG1        0.0618
     13 C           1.8146   17.0199    4.8822 C.ar    1  LIG1       -0.0614
     14 H           2.0323   17.9413    4.8039 H       1  LIG1        0.0618
     15 C           2.2474   16.2936    5.9815 C.ar    1  LIG1       -0.0561
     16 H           2.7640   16.7197    6.6553 H       1  LIG1        0.0621
     17 C           1.9261   14.9313    6.1050 C.ar    1  LIG1       -0.0181
     18 C           2.5024   14.1790    7.2746 C.3     1  LIG1        0.0738
     19 H           3.4871   14.1474    7.1810 H       1  LIG1        0.0610
     20 H           2.2948   14.6731    8.1070 H       1  LIG1        0.0610
     21 C           0.8590   12.1167    3.8826 C.3     1  LIG1       -0.0521
     22 H           0.1526   12.4992    3.3217 H       1  LIG1        0.0239
     23 H           0.7017   11.1553    3.9947 H       1  LIG1        0.0239
     24 H           1.7286   12.2579    3.4531 H       1  LIG1        0.0239
     25 C          -0.4839   12.5588    5.9729 C.3     1  LIG1        0.0118
     26 H          -0.4179   12.9423    6.8836 H       1  LIG1        0.0382
     27 H          -0.6175   11.5834    6.0698 H       1  LIG1        0.0382
     28 C           1.8515   10.6846    6.4083 C.ar    1  LIG1       -0.0143
     29 C           1.1967   10.2300    7.5421 C.ar    1  LIG1       -0.0524
     30 H           0.8058   10.8643    8.1329 H       1  LIG1        0.0622
     31 C           1.0919    8.8645    7.8461 C.ar    1  LIG1       -0.0158
     32 H           0.6504    8.5582    8.6294 H       1  LIG1        0.0655
     33 C           1.6645    7.9940    6.9460 C.ar    1  LIG1        0.1662
     34 C           2.5315    6.2169    5.9184 C.3     1  LIG1        0.2332
     35 H           2.1136    5.4834    5.4013 H       1  LIG1        0.1166
     36 H           3.3958    5.8934    6.2769 H       1  LIG1        0.1166
     37 C           2.3095    8.4372    5.8195 C.ar    1  LIG1        0.1666
     38 C           2.4385    9.7696    5.5109 C.ar    1  LIG1       -0.0105
     39 H           2.8995   10.0592    4.7329 H       1  LIG1        0.0659
@<TRIPOS>BOND
     1    12    11    1
     2    22    21    1
     3    10     9    1
     4    24    21    1
     5    21    23    1
     6    21     7    1
     7    11     9   ar
     8    11    13   ar
     9     9     8   ar
    10    39    38    1
    11    14    13    1
    12    13    15   ar
    13     1    25    1
    14     4    37    1
    15     4    34    1
    16     8     7    1
    17     8    17   ar
    18     7    25    1
    19     7     5    1
    20    35    34    1
    21    38    37   ar
    22    38    28   ar
    23     6     5    1
    24    37    33   ar
    25    34    36    1
    26    34     3    1
    27    25    27    1
    28    25    26    1
    29    15    17   ar
    30    15    16    1
    31    17    18    1
    32     5    28    1
    33     5     2    1
    34    28    29   ar
    35    33     3    1
    36    33    31   ar
    37    19    18    1
    38    18     2    1
    39    18    20    1
    40    29    31   ar
    41    29    30    1
    42    31    32    1
