@<TRIPOS>MOLECULE
?
 44 45 0 0 0
SMALL
GASTEIGER

@<TRIPOS>ATOM
      1 O           1.2450    2.3174    8.4350 O.3     1  LIG1       -0.3909
      2 H           1.0916    2.0226    7.6640 H       1  LIG1        0.2098
      3 O          -5.9290    2.2929    8.5443 O.3     1  LIG1       -0.3863
      4 H          -6.7682    2.2751    8.5116 H       1  LIG1        0.2103
      5 O          -5.1103   -0.9334    6.9647 O.3     1  LIG1       -0.3922
      6 H          -5.4005   -1.5125    7.4993 H       1  LIG1        0.2095
      7 C           0.3416    1.7094    9.3669 C.3     1  LIG1        0.0646
      8 H           0.3841    0.7187    9.2388 H       1  LIG1        0.0602
      9 C           0.8192    2.0243   10.7689 C.3     1  LIG1       -0.0224
     10 H           0.6794    2.9838   10.9670 H       1  LIG1        0.0293
     11 H           1.7852    1.8257   10.8504 H       1  LIG1        0.0293
     12 C           0.0285    1.1715   11.7434 C.3     1  LIG1       -0.0294
     13 H           0.3855    0.2481   11.7221 H       1  LIG1        0.0311
     14 H           0.1614    1.5247   12.6584 H       1  LIG1        0.0311
     15 C          -1.4550    1.1292   11.4464 C.2     1  LIG1       -0.0727
     16 C          -1.9747    1.6093   10.3130 C.2     1  LIG1       -0.0619
     17 C          -3.4707    1.6810   10.0670 C.3     1  LIG1       -0.0254
     18 H          -3.7505    2.6306   10.0484 H       1  LIG1        0.0314
     19 H          -3.9439    1.2405   10.8175 H       1  LIG1        0.0314
     20 C          -3.8846    1.0096    8.7482 C.3     1  LIG1       -0.0065
     21 H          -3.5524    0.0673    8.7865 H       1  LIG1        0.0332
     22 C          -3.1377    1.6955    7.6052 C.3     1  LIG1       -0.0464
     23 H          -3.3978    2.6495    7.5639 H       1  LIG1        0.0269
     24 H          -3.3841    1.2711    6.7454 H       1  LIG1        0.0269
     25 C          -1.6268    1.5837    7.8182 C.3     1  LIG1       -0.0412
     26 H          -1.1678    2.0599    7.0811 H       1  LIG1        0.0274
     27 H          -1.3701    0.6291    7.7628 H       1  LIG1        0.0274
     28 C          -1.1195    2.1555    9.1699 C.3     1  LIG1        0.0151
     29 C          -5.4181    0.9368    8.5738 C.3     1  LIG1        0.0893
     30 C          -5.7899    0.2987    7.2234 C.3     1  LIG1        0.0730
     31 H          -6.7662    0.1352    7.2053 H       1  LIG1        0.0586
     32 H          -5.5788    0.9384    6.4983 H       1  LIG1        0.0586
     33 C          -6.0790    0.1413    9.6928 C.3     1  LIG1       -0.0336
     34 H          -7.0479    0.1179    9.5480 H       1  LIG1        0.0258
     35 H          -5.8876    0.5680   10.5539 H       1  LIG1        0.0258
     36 H          -5.7267   -0.7732    9.6962 H       1  LIG1        0.0258
     37 C          -1.2125    3.6881    9.1261 C.3     1  LIG1       -0.0535
     38 H          -0.8950    4.0591    9.9762 H       1  LIG1        0.0239
     39 H          -2.1444    3.9551    8.9816 H       1  LIG1        0.0239
     40 H          -0.6576    4.0285    8.3937 H       1  LIG1        0.0239
     41 C          -2.2513    0.4723   12.5517 C.3     1  LIG1       -0.0435
     42 H          -3.2017    0.4700   12.3125 H       1  LIG1        0.0274
     43 H          -2.1251    0.9707   13.3856 H       1  LIG1        0.0274
     44 H          -1.9423   -0.4500   12.6723 H       1  LIG1        0.0274
@<TRIPOS>BOND
     1    32    30    1
     2    24    22    1
     3     5    30    1
     4     5     6    1
     5    26    25    1
     6    31    30    1
     7    30    29    1
     8    23    22    1
     9    22    25    1
    10    22    20    1
    11     2     1    1
    12    27    25    1
    13    25    28    1
    14    40    37    1
    15     1     7    1
    16     4     3    1
    17     3    29    1
    18    29    20    1
    19    29    33    1
    20    20    21    1
    21    20    17    1
    22    39    37    1
    23    37    28    1
    24    37    38    1
    25    28     7    1
    26    28    16    1
    27     8     7    1
    28     7     9    1
    29    34    33    1
    30    33    36    1
    31    33    35    1
    32    18    17    1
    33    17    16    1
    34    17    19    1
    35    16    15    2
    36     9    11    1
    37     9    10    1
    38     9    12    1
    39    15    12    1
    40    15    41    1
    41    13    12    1
    42    12    14    1
    43    42    41    1
    44    41    44    1
    45    41    43    1
