@<TRIPOS>MOLECULE
?
 41 42 0 0 0
SMALL
GASTEIGER

@<TRIPOS>ATOM
      1 BR          4.8662   10.3813    7.0661 Br      1  LIG1       -0.0503
      2 O           3.1354    3.2254    9.2874 O.2     1  LIG1       -0.2738
      3 O           1.9060    3.3781    5.9011 O.2     1  LIG1       -0.1314
      4 O           3.6168    2.1968    6.3551 O.2     1  LIG1       -0.1314
      5 O           1.8140    6.5673    5.6535 O.2     1  LIG1       -0.2453
      6 O          -0.1047    6.6333    6.7463 O.3     1  LIG1       -0.4647
      7 N           4.1403    5.1750    9.9728 N.am    1  LIG1       -0.2731
      8 N           3.0592    3.2587    6.2669 N.pl3   1  LIG1        0.0271
      9 C           4.3838    6.4397    9.4353 C.ar    1  LIG1        0.0406
     10 C           5.0683    7.4866    9.9984 C.ar    1  LIG1       -0.0389
     11 H           5.4387    7.4043   10.8480 H       1  LIG1        0.0637
     12 C           5.1992    8.6586    9.2933 C.ar    1  LIG1       -0.0460
     13 H           5.6378    9.3843    9.6757 H       1  LIG1        0.0629
     14 C           4.6860    8.7560    8.0356 C.ar    1  LIG1        0.0183
     15 C           3.9888    7.6941    7.4327 C.ar    1  LIG1       -0.0414
     16 H           3.6351    7.7717    6.5763 H       1  LIG1        0.0632
     17 C           3.8524    6.5348    8.1629 C.ar    1  LIG1       -0.0033
     18 C           3.1488    5.2190    7.8376 C.3     1  LIG1        0.1317
     19 C           3.4534    4.3820    9.1073 C.2     1  LIG1        0.2370
     20 C           4.5813    4.7113   11.2896 C.3     1  LIG1        0.0083
     21 H           4.3092    3.7989   11.4141 H       1  LIG1        0.0433
     22 H           4.1855    5.2596   11.9707 H       1  LIG1        0.0433
     23 H           5.5378    4.7704   11.3455 H       1  LIG1        0.0433
     24 C           3.8064    4.5409    6.5987 C.3     1  LIG1        0.1321
     25 H           3.7041    5.1495    5.8386 H       1  LIG1        0.0611
     26 C           5.2912    4.2661    6.7720 C.3     1  LIG1       -0.0270
     27 H           5.7092    5.0475    7.1653 H       1  LIG1        0.0285
     28 H           5.4022    3.5288    7.3940 H       1  LIG1        0.0285
     29 C           6.0058    3.9299    5.4916 C.3     1  LIG1       -0.0631
     30 H           5.6568    3.1080    5.1371 H       1  LIG1        0.0230
     31 H           6.9441    3.8302    5.6651 H       1  LIG1        0.0230
     32 H           5.8710    4.6359    4.8550 H       1  LIG1        0.0230
     33 C           1.6387    5.4509    7.7647 C.2     1  LIG1        0.0511
     34 C           0.7924    5.0602    8.6982 C.2     1  LIG1       -0.0873
     35 H          -0.1071    5.2897    8.6368 H       1  LIG1        0.0540
     36 H           1.0946    4.5548    9.4183 H       1  LIG1        0.0540
     37 C           1.1564    6.2624    6.6056 C.2     1  LIG1        0.3357
     38 C          -0.6631    7.4379    5.6785 C.3     1  LIG1        0.0820
     39 H          -0.3514    8.3421    5.7642 H       1  LIG1        0.0661
     40 H          -1.6212    7.4228    5.7356 H       1  LIG1        0.0661
     41 H          -0.3871    7.0820    4.8321 H       1  LIG1        0.0661
@<TRIPOS>BOND
     1    41    38    1
     2    32    29    1
     3    30    29    1
     4    29    31    1
     5    29    26    1
     6     5    37    2
     7    38    40    1
     8    38    39    1
     9    38     6    1
    10    25    24    1
    11     3     8    2
    12     8     4    2
    13     8    24    1
    14    16    15    1
    15    24    26    1
    16    24    18    1
    17    37     6    1
    18    37    33    1
    19    26    27    1
    20    26    28    1
    21     1    14    1
    22    15    14   ar
    23    15    17   ar
    24    33    18    1
    25    33    34    2
    26    18    17    1
    27    18    19    1
    28    14    12   ar
    29    17     9   ar
    30    35    34    1
    31    34    36    1
    32    19     2    2
    33    19     7   am
    34    12    13    1
    35    12    10   ar
    36     9     7    1
    37     9    10   ar
    38     7    20    1
    39    10    11    1
    40    20    23    1
    41    20    21    1
    42    20    22    1
