@<TRIPOS>MOLECULE
?
 59 63 0 0 0
SMALL
GASTEIGER

@<TRIPOS>ATOM
      1 BR          8.0969    2.9883    2.2266 Br      1  LIG1       -0.0425
      2 BR          4.1088    0.7092   15.6967 Br      1  LIG1       -0.0425
      3 S           8.0430    3.1503    5.3089 S.2     1  LIG1       -0.0816
      4 S           5.9147    1.5590   13.3260 S.2     1  LIG1       -0.0816
      5 O           9.2216    4.7636   10.3522 O.2     1  LIG1       -0.2873
      6 O          12.0984    5.7857    5.4200 O.3     1  LIG1       -0.3449
      7 O          10.4406    7.2834    5.2145 O.3     1  LIG1       -0.3449
      8 O           7.7115   -0.1967    8.9248 O.3     1  LIG1       -0.3512
      9 O           9.5081    0.9858    9.8633 O.3     1  LIG1       -0.3512
     10 O           5.9361    5.9289   15.5332 O.3     1  LIG1       -0.3449
     11 O           8.0099    5.4209   14.8231 O.3     1  LIG1       -0.3449
     12 C           8.7077    3.7205    3.8337 C.ar    1  LIG1        0.0559
     13 C           9.6503    4.6752    4.0040 C.ar    1  LIG1       -0.0321
     14 H          10.1249    5.0917    3.2941 H       1  LIG1        0.0638
     15 C           9.8437    4.9774    5.3846 C.ar    1  LIG1        0.0231
     16 C           9.0673    4.2095    6.2297 C.ar    1  LIG1        0.0216
     17 C           9.0210    4.2723    7.6775 C.2     1  LIG1       -0.0406
     18 H           9.3636    5.0716    8.0608 H       1  LIG1        0.0633
     19 C           8.5636    3.3629    8.5565 C.2     1  LIG1        0.0057
     20 C           8.0103    2.0092    8.2189 C.3     1  LIG1        0.0306
     21 H           8.4861    1.6444    7.4305 H       1  LIG1        0.0367
     22 H           7.0518    2.0926    7.9873 H       1  LIG1        0.0367
     23 C           8.1668    1.0507    9.3962 C.3     1  LIG1        0.1774
     24 C           7.3941    1.5628   10.6051 C.3     1  LIG1        0.0306
     25 H           6.4241    1.5350   10.4081 H       1  LIG1        0.0367
     26 H           7.5647    0.9677   11.3775 H       1  LIG1        0.0367
     27 C           7.7884    2.9732   10.9661 C.2     1  LIG1        0.0057
     28 C           8.5978    3.7762    9.9992 C.2     1  LIG1        0.1857
     29 C           7.4292    3.6070   12.0975 C.2     1  LIG1       -0.0406
     30 H           7.7791    4.4851   12.1943 H       1  LIG1        0.0633
     31 C           6.5929    3.1582   13.1868 C.ar    1  LIG1        0.0216
     32 C           6.2321    3.9201   14.2826 C.ar    1  LIG1        0.0231
     33 C           5.4224    3.2329   15.2213 C.ar    1  LIG1       -0.0321
     34 H           5.0929    3.6149   16.0268 H       1  LIG1        0.0638
     35 C           5.1795    1.9597   14.8215 C.ar    1  LIG1        0.0559
     36 C          10.7838    6.0574    5.8381 C.3     1  LIG1        0.1866
     37 H          10.7487    6.1523    6.8327 H       1  LIG1        0.0965
     38 C          12.7385    7.0640    5.4440 C.3     1  LIG1        0.0744
     39 H          13.5003    7.0933    4.8119 H       1  LIG1        0.0584
     40 H          13.0641    7.2823    6.3536 H       1  LIG1        0.0584
     41 C          11.6463    8.0080    5.0182 C.3     1  LIG1        0.0744
     42 H          11.6575    8.8294    5.5722 H       1  LIG1        0.0584
     43 H          11.7530    8.2625    4.0685 H       1  LIG1        0.0584
     44 C           7.8090   -1.2777    9.8515 C.3     1  LIG1        0.0397
     45 H           7.5587   -2.1139    9.4061 H       1  LIG1        0.0525
     46 H           7.2059   -1.1163   10.6073 H       1  LIG1        0.0525
     47 H           8.7310   -1.3454   10.1791 H       1  LIG1        0.0525
     48 C          10.5015    0.6181    8.9266 C.3     1  LIG1        0.0397
     49 H          11.3526    0.4758    9.3920 H       1  LIG1        0.0525
     50 H          10.6072    1.3337    8.2657 H       1  LIG1        0.0525
     51 H          10.2344   -0.2083    8.4734 H       1  LIG1        0.0525
     52 C           6.6477    5.3453   14.4634 C.3     1  LIG1        0.1866
     53 H           6.4859    5.8598   13.6216 H       1  LIG1        0.0965
     54 C           6.7323    7.0511   15.9144 C.3     1  LIG1        0.0744
     55 H           6.6973    7.1890   16.8945 H       1  LIG1        0.0584
     56 H           6.4170    7.8740   15.4630 H       1  LIG1        0.0584
     57 C           8.1497    6.6970   15.4677 C.3     1  LIG1        0.0744
     58 H           8.5007    7.3748   14.8370 H       1  LIG1        0.0584
     59 H           8.7596    6.6352   16.2445 H       1  LIG1        0.0584
@<TRIPOS>BOND
     1     1    12    1
     2    14    13    1
     3    12    13   ar
     4    12     3   ar
     5    13    15   ar
     6    43    41    1
     7    39    38    1
     8    41     7    1
     9    41    38    1
    10    41    42    1
    11     7    36    1
    12     3    16   ar
    13    15    36    1
    14    15    16   ar
    15     6    38    1
    16     6    36    1
    17    38    40    1
    18    36    37    1
    19    16    17    1
    20    21    20    1
    21    17    18    1
    22    17    19    2
    23    22    20    1
    24    20    19    1
    25    20    23    1
    26    50    48    1
    27    51    48    1
    28    19    28    1
    29     8    23    1
    30     8    44    1
    31    48    49    1
    32    48     9    1
    33    23     9    1
    34    23    24    1
    35    45    44    1
    36    44    47    1
    37    44    46    1
    38    28     5    2
    39    28    27    1
    40    25    24    1
    41    24    27    1
    42    24    26    1
    43    27    29    2
    44    29    30    1
    45    29    31    1
    46    31     4   ar
    47    31    32   ar
    48     4    35   ar
    49    53    52    1
    50    32    52    1
    51    32    33   ar
    52    52    11    1
    53    52    10    1
    54    35    33   ar
    55    35     2    1
    56    11    57    1
    57    58    57    1
    58    33    34    1
    59    56    54    1
    60    57    54    1
    61    57    59    1
    62    10    54    1
    63    54    55    1
