@<TRIPOS>MOLECULE
?
 56 54 0 0 0
SMALL
GASTEIGER

@<TRIPOS>ATOM
      1 BR          4.6703    6.0506    6.4840 Br      1  LIG1       -0.0309
      2 BR          3.5212    5.7924    2.8468 Br      2  LIG2       -0.0309
      3 BR          5.3540    2.5288   10.8491 Br      1  LIG1       -0.0364
      4 BR          6.0489    2.8624    5.2218 Br      1  LIG1       -0.0309
      5 BR          2.1136    3.1123    4.9228 Br      2  LIG2       -0.0309
      6 BR          2.4486    1.2926   -0.4194 Br      2  LIG2       -0.0364
      7 P           1.2497    3.2731    8.8927 P.3     3  LIG3        0.6235
      8 P           6.7005    2.5896    1.2436 P.3     4  LIG4        0.6235
      9 N           2.2497    2.0276    2.2886 N.pl3   2  LIG2       -0.2890
     10 N           5.0152    4.4052    8.7782 N.pl3   1  LIG1       -0.2890
     11 F           2.4469    2.3373    8.3832 F       3  LIG3       -0.1039
     12 F           2.0406    3.5565   10.2406 F       3  LIG3       -0.1039
     13 F           0.4640    2.9921    7.5261 F       3  LIG3       -0.1039
     14 C           1.4958    6.4904   -0.2973 C.1     2  LIG2       -0.1176
     15 H           0.8843    7.2164   -0.3308 H       2  LIG2        0.1228
     16 F           1.9717    4.5300    8.2064 F       3  LIG3       -0.1039
     17 F           7.5618    2.6803    2.5685 F       4  LIG4       -0.1039
     18 F           0.5255    2.0229    9.5550 F       3  LIG3       -0.1039
     19 F           0.0555    4.2203    9.3675 F       3  LIG3       -0.1039
     20 N           5.7408    2.4971    8.0363 N.pl3   1  LIG1       -0.2775
     21 F           5.9182    3.8483    1.7356 F       4  LIG4       -0.1039
     22 C           2.5418    2.3917    1.0419 C.3     2  LIG2        0.2102
     23 C           6.2388    1.1064    7.9881 C.3     1  LIG1        0.0770
     24 H           7.0774    1.0783    7.4632 H       1  LIG1        0.0601
     25 H           6.4433    0.8003    8.9068 H       1  LIG1        0.0601
     26 C           2.9298    4.1128    2.3382 C.2     2  LIG2        0.1050
     27 F           5.8487    2.5064   -0.0629 F       4  LIG4       -0.1039
     28 C           4.5826    5.5054    9.6782 C.3     1  LIG1        0.0127
     29 H           4.2496    5.1210   10.5272 H       1  LIG1        0.0462
     30 H           3.8378    6.0011    9.2550 H       1  LIG1        0.0462
     31 C           1.8240    0.6676    2.7198 C.3     2  LIG2        0.0127
     32 H           1.3661    0.2109    1.9699 H       2  LIG2        0.0462
     33 H           1.1840    0.7440    3.4711 H       2  LIG2        0.0462
     34 F           5.5669    1.7048    1.8722 F       4  LIG4       -0.1039
     35 C           3.2568    4.5059   -0.1446 C.3     2  LIG2        0.0770
     36 H           4.1629    4.8961   -0.0562 H       2  LIG2        0.0601
     37 H           3.2389    3.9467   -0.9615 H       2  LIG2        0.0601
     38 N           2.9518    3.6708    1.0419 N.pl3   2  LIG2       -0.2775
     39 C           2.4777    3.1090    3.1136 C.2     2  LIG2        0.1042
     40 F           7.5202    1.3925    0.7111 F       4  LIG4       -0.1039
     41 F           7.8467    3.4888    0.6040 F       4  LIG4       -0.1039
     42 C           5.1432    4.5221    7.4069 C.2     1  LIG1        0.1042
     43 C           5.7084    6.4569    9.9714 C.3     1  LIG1       -0.0493
     44 H           6.4076    5.9904   10.4763 H       1  LIG1        0.0245
     45 H           5.3709    7.2089   10.5017 H       1  LIG1        0.0245
     46 H           6.0813    6.7912    9.1291 H       1  LIG1        0.0245
     47 C           5.3746    3.1780    9.1371 C.3     1  LIG1        0.2102
     48 C           2.2634    5.5786   -0.2558 C.1     2  LIG2       -0.0864
     49 C           5.2610    0.1972    7.3842 C.1     1  LIG1       -0.0864
     50 C           5.5983    3.3432    6.9449 C.2     1  LIG1        0.1050
     51 C           3.0250   -0.1499    3.1551 C.3     2  LIG2       -0.0493
     52 H           3.6416   -0.2516    2.3998 H       2  LIG2        0.0245
     53 H           2.7269   -1.0341    3.4564 H       2  LIG2        0.0245
     54 H           3.4832    0.3089    3.8903 H       2  LIG2        0.0245
     55 C           4.5361   -0.5668    6.8766 C.1     1  LIG1       -0.1176
     56 H           3.9465   -1.1868    6.4655 H       1  LIG1        0.1228
@<TRIPOS>BOND
     1    37    35    1
     2     6    22    1
     3    15    14    1
     4    14    48    3
     5    48    35    1
     6    35    36    1
     7    35    38    1
     8    27     8    1
     9    41     8    1
    10    40     8    1
    11    38    22    1
    12    38    26    1
    13    22     9    1
    14     8    21    1
    15     8    34    1
    16     8    17    1
    17    32    31    1
    18     9    31    1
    19     9    39    1
    20    26     2    1
    21    26    39    2
    22    52    51    1
    23    31    51    1
    24    31    33    1
    25    39     5    1
    26    51    53    1
    27    51    54    1
    28     4    50    1
    29    56    55    1
    30     1    42    1
    31    55    49    3
    32    50    42    2
    33    50    20    1
    34    49    23    1
    35    42    10    1
    36    24    23    1
    37    13     7    1
    38    23    20    1
    39    23    25    1
    40    20    47    1
    41    16     7    1
    42    11     7    1
    43    10    47    1
    44    10    28    1
    45     7    19    1
    46     7    18    1
    47     7    12    1
    48    46    43    1
    49    47     3    1
    50    30    28    1
    51    28    43    1
    52    28    29    1
    53    43    44    1
    54    43    45    1
