@<TRIPOS>MOLECULE
?
 44 44 0 0 0
SMALL
GASTEIGER

@<TRIPOS>ATOM
      1 S           2.8209    0.6815    4.9766 S.O2    1  LIG1        0.0612
      2 O           3.2494    1.0401    3.6565 O.2     1  LIG1       -0.1528
      3 O           2.9837   -0.6643    5.4420 O.2     1  LIG1       -0.1528
      4 O           7.0115    1.9068    8.2340 O.2     1  LIG1       -0.2453
      5 O           5.8099    0.0350    7.8072 O.3     1  LIG1       -0.4556
      6 N           3.6436    1.6609    5.9994 N.3     1  LIG1       -0.1708
      7 C           1.1245    1.1274    5.1569 C.ar    1  LIG1        0.1055
      8 C           0.5463    2.0543    4.2913 C.ar    1  LIG1       -0.0351
      9 H           1.0398    2.4045    3.5592 H       1  LIG1        0.0637
     10 C          -0.7643    2.4593    4.5153 C.ar    1  LIG1       -0.0570
     11 H          -1.1634    3.0863    3.9231 H       1  LIG1        0.0621
     12 C          -1.5077    1.9698    5.5850 C.ar    1  LIG1       -0.0503
     13 C          -0.9106    1.0295    6.4316 C.ar    1  LIG1       -0.0570
     14 H          -1.4071    0.6690    7.1574 H       1  LIG1        0.0621
     15 C           0.3927    0.6189    6.2255 C.ar    1  LIG1       -0.0351
     16 H           0.7890   -0.0116    6.8134 H       1  LIG1        0.0637
     17 C          -2.9237    2.4242    5.8143 C.3     1  LIG1       -0.0397
     18 H          -3.1495    3.1288    5.1706 H       1  LIG1        0.0278
     19 H          -3.0112    2.7737    6.7251 H       1  LIG1        0.0278
     20 H          -3.5322    1.6660    5.6943 H       1  LIG1        0.0278
     21 C           3.7320    3.0790    5.5755 C.3     1  LIG1        0.0353
     22 H           3.6050    3.6691    6.3601 H       1  LIG1        0.0457
     23 H           3.0147    3.2767    4.9223 H       1  LIG1        0.0457
     24 C           3.4475    1.4312    7.4603 C.3     1  LIG1        0.0518
     25 H           3.3737    0.4606    7.6412 H       1  LIG1        0.0495
     26 H           2.6101    1.8667    7.7600 H       1  LIG1        0.0495
     27 C           4.6165    2.0024    8.2102 C.2     1  LIG1        0.0452
     28 C           4.5247    3.0862    8.9486 C.2     1  LIG1       -0.0874
     29 H           3.6926    3.5404    9.0243 H       1  LIG1        0.0540
     30 H           5.2891    3.4144    9.4071 H       1  LIG1        0.0540
     31 C           5.9562    1.3359    8.0808 C.2     1  LIG1        0.3364
     32 C           6.9742   -0.8271    7.5055 C.3     1  LIG1        0.1055
     33 C           6.3080   -2.1612    7.2384 C.3     1  LIG1       -0.0254
     34 H           5.8262   -2.4521    8.0409 H       1  LIG1        0.0268
     35 H           6.9899   -2.8264    7.0080 H       1  LIG1        0.0268
     36 H           5.6775   -2.0674    6.4948 H       1  LIG1        0.0268
     37 C           7.6631   -0.2924    6.2665 C.3     1  LIG1       -0.0254
     38 H           6.9996   -0.1492    5.5597 H       1  LIG1        0.0268
     39 H           8.3316   -0.9391    5.9604 H       1  LIG1        0.0268
     40 H           8.1036    0.5571    6.4790 H       1  LIG1        0.0268
     41 C           7.9028   -0.9121    8.6972 C.3     1  LIG1       -0.0254
     42 H           8.2916   -0.0296    8.8728 H       1  LIG1        0.0268
     43 H           8.6212   -1.5528    8.5068 H       1  LIG1        0.0268
     44 H           7.3998   -1.2106    9.4829 H       1  LIG1        0.0268
@<TRIPOS>BOND
     1     9     8    1
     2     2     1    2
     3    11    10    1
     4     8    10   ar
     5     8     7   ar
     6    10    12   ar
     7    23    21    1
     8     1     7    1
     9     1     3    2
    10     1     6    1
    11     7    15   ar
    12    18    17    1
    13    38    37    1
    14    21     6    1
    15    21    22    1
    16    12    17    1
    17    12    13   ar
    18    20    17    1
    19    17    19    1
    20    39    37    1
    21     6    24    1
    22    15    13   ar
    23    15    16    1
    24    37    40    1
    25    37    32    1
    26    13    14    1
    27    36    33    1
    28    35    33    1
    29    33    32    1
    30    33    34    1
    31    24    25    1
    32    24    26    1
    33    24    27    1
    34    32     5    1
    35    32    41    1
    36     5    31    1
    37    31    27    1
    38    31     4    2
    39    27    28    2
    40    43    41    1
    41    41    42    1
    42    41    44    1
    43    28    29    1
    44    28    30    1
