@<TRIPOS>MOLECULE
?
 47 50 0 0 0
SMALL
GASTEIGER

@<TRIPOS>ATOM
      1 S           1.6845    4.6315    1.6047 S.O2    1  LIG1        0.0007
      2 O          -1.1524    3.9667    0.3979 O.2     1  LIG1       -0.4861
      3 O          -1.1370    1.3690   -5.3046 O.3     1  LIG1       -0.4951
      4 O          -1.5309   -0.5337   -0.9641 O.2     1  LIG1       -0.2919
      5 O           3.0738    4.3487    1.8714 O.2     1  LIG1       -0.1692
      6 O           1.2939    6.0071    1.4239 O.2     1  LIG1       -0.1692
      7 C          -0.0449    4.1832   -0.5259 C.3     1  LIG1        0.1449
      8 H          -0.0081    5.1295   -0.6471 H       1  LIG1        0.0801
      9 C          -0.2937    3.4750   -1.8328 C.ar    1  LIG1        0.0024
     10 C           0.0863    4.0201   -3.0462 C.ar    1  LIG1       -0.0510
     11 H           0.5393    4.8543   -3.0484 H       1  LIG1        0.0623
     12 C          -0.1676    3.3453   -4.2444 C.ar    1  LIG1       -0.0195
     13 H           0.1452    3.7322   -5.0553 H       1  LIG1        0.0654
     14 C          -0.8124    2.1178   -4.1993 C.ar    1  LIG1        0.1207
     15 C          -1.1776    1.5469   -2.9817 C.ar    1  LIG1       -0.0117
     16 H          -1.6269    0.6873   -3.0124 H       1  LIG1        0.0660
     17 C          -0.9298    2.2221   -1.7862 C.ar    1  LIG1       -0.0012
     18 C          -1.4333    1.7700   -0.4736 C.2     1  LIG1        0.0624
     19 C          -1.7622    0.3770   -0.1746 C.2     1  LIG1        0.1669
     20 C          -2.3516    0.0686    1.1840 C.3     1  LIG1        0.0110
     21 H          -2.8989   -0.7603    1.0825 H       1  LIG1        0.0345
     22 H          -1.5075   -0.1095    1.7974 H       1  LIG1        0.0345
     23 C          -3.1862    1.2183    1.7253 C.3     1  LIG1       -0.0392
     24 H          -3.9747    1.4110    1.0990 H       1  LIG1        0.0273
     25 H          -3.5675    1.0003    2.6109 H       1  LIG1        0.0273
     26 C          -2.3455    2.4788    1.7825 C.3     1  LIG1        0.0061
     27 H          -1.6460    2.4112    2.5184 H       1  LIG1        0.0344
     28 H          -2.8741    3.2934    1.9566 H       1  LIG1        0.0344
     29 C          -1.6098    2.7032    0.5072 C.2     1  LIG1        0.1097
     30 C           1.2519    3.7159    0.1321 C.3     1  LIG1        0.1119
     31 H           1.2326    2.8011    0.3492 H       1  LIG1        0.0545
     32 H           1.9910    3.8734   -0.4601 H       1  LIG1        0.0545
     33 C          -1.0653    2.0157   -6.5765 C.3     1  LIG1        0.0788
     34 H          -1.6417    2.8338   -6.5744 H       1  LIG1        0.0660
     35 H          -0.0897    2.2259   -6.7993 H       1  LIG1        0.0660
     36 H          -1.4302    1.3829   -7.2204 H       1  LIG1        0.0660
     37 C           0.7415    3.9594    2.9437 C.ar    1  LIG1        0.0883
     38 C           0.9798    2.6515    3.3608 C.ar    1  LIG1       -0.0369
     39 H           1.5968    2.1084    2.8861 H       1  LIG1        0.0636
     40 C           0.2905    2.1580    4.4633 C.ar    1  LIG1       -0.0600
     41 H           0.4558    1.2373    4.7831 H       1  LIG1        0.0618
     42 C          -0.6091    2.9768    5.1321 C.ar    1  LIG1       -0.0616
     43 H          -1.0408    2.6551    5.8636 H       1  LIG1        0.0618
     44 C          -0.8391    4.2728    4.7055 C.ar    1  LIG1       -0.0600
     45 H          -1.4644    4.8443    5.1601 H       1  LIG1        0.0618
     46 C          -0.1649    4.7808    3.6014 C.ar    1  LIG1       -0.0369
     47 H          -0.3049    5.6506    3.3072 H       1  LIG1        0.0636
@<TRIPOS>BOND
     1    36    33    1
     2    35    33    1
     3    33    34    1
     4    33     3    1
     5     3    14    1
     6    13    12    1
     7    12    14   ar
     8    12    10   ar
     9    14    15   ar
    10    11    10    1
    11    10     9   ar
    12    16    15    1
    13    15    17   ar
    14     9    17   ar
    15     9     7    1
    16    17    18    1
    17     4    19    2
    18     8     7    1
    19     7    30    1
    20     7     2    1
    21    18    19    1
    22    18    29    2
    23    32    30    1
    24    19    20    1
    25    30    31    1
    26    30     1    1
    27     2    29    1
    28    29    26    1
    29    21    20    1
    30    24    23    1
    31    20    23    1
    32    20    22    1
    33     6     1    2
    34     1     5    2
    35     1    37    1
    36    23    26    1
    37    23    25    1
    38    26    28    1
    39    26    27    1
    40    39    38    1
    41    37    38   ar
    42    37    46   ar
    43    47    46    1
    44    38    40   ar
    45    46    44   ar
    46    40    41    1
    47    40    42   ar
    48    44    42   ar
    49    44    45    1
    50    42    43    1
