@<TRIPOS>MOLECULE
?
 64 69 0 0 0
SMALL
GASTEIGER

@<TRIPOS>ATOM
      1 S           4.7182    3.3764    0.8254 S.O2    1  LIG1        0.0615
      2 N           4.2518    3.8987    2.2946 N.3     1  LIG1       -0.1646
      3 O           6.0105    4.6250    4.5787 O.3     1  LIG1       -0.3544
      4 O           1.6800    2.9056    4.5552 O.2     1  LIG1       -0.2497
      5 O           1.9424    5.0128    5.1767 O.3     1  LIG1       -0.4592
      6 O           4.7248    4.5120   -0.0315 O.2     1  LIG1       -0.1528
      7 O           3.8967    2.2556    0.5172 O.2     1  LIG1       -0.1528
      8 C           3.8945    3.7639    4.6052 C.3     1  LIG1        0.1394
      9 C           4.2274    2.9115    3.3850 C.3     1  LIG1        0.0440
     10 H           5.0893    2.4768    3.4843 H       1  LIG1        0.0459
     11 H           3.5468    2.2362    3.2321 H       1  LIG1        0.0459
     12 C           4.5525    5.2737    2.7523 C.3     1  LIG1        0.0908
     13 H           5.4150    5.5588    2.3844 H       1  LIG1        0.0562
     14 C           4.6804    5.0853    4.2490 C.3     1  LIG1        0.1306
     15 C           4.4542    6.1200    5.3131 C.2     1  LIG1       -0.0505
     16 H           3.9649    6.9065    5.2393 H       1  LIG1        0.0599
     17 C           5.0951    5.6755    6.3723 C.2     1  LIG1       -0.0526
     18 H           5.1413    6.0850    7.2056 H       1  LIG1        0.0599
     19 C           5.7408    4.3766    5.9737 C.3     1  LIG1        0.1002
     20 H           6.5141    4.1069    6.5120 H       1  LIG1        0.0688
     21 C           4.6246    3.3488    5.8712 C.2     1  LIG1       -0.0233
     22 C           4.3668    2.3426    6.6628 C.2     1  LIG1       -0.0955
     23 H           3.6562    1.7734    6.4747 H       1  LIG1        0.0536
     24 H           4.8952    2.1948    7.4146 H       1  LIG1        0.0536
     25 C           3.4824    6.2690    2.3569 C.ar    1  LIG1       -0.0255
     26 C           2.2335    5.8814    1.9305 C.ar    1  LIG1       -0.0569
     27 H           2.0329    4.9757    1.8554 H       1  LIG1        0.0621
     28 C           1.2704    6.8265    1.6111 C.ar    1  LIG1       -0.0614
     29 H           0.4318    6.5504    1.3171 H       1  LIG1        0.0618
     30 C           1.5454    8.1513    1.7249 C.ar    1  LIG1       -0.0617
     31 H           0.8943    8.7823    1.5215 H       1  LIG1        0.0618
     32 C           2.7945    8.5550    2.1427 C.ar    1  LIG1       -0.0614
     33 H           2.9871    9.4621    2.2186 H       1  LIG1        0.0618
     34 C           3.7589    7.6193    2.4506 C.ar    1  LIG1       -0.0569
     35 H           4.6021    7.8987    2.7230 H       1  LIG1        0.0621
     36 C           2.3873    3.8344    4.7652 C.2     1  LIG1        0.3223
     37 C           0.5042    5.2204    5.1944 C.3     1  LIG1        0.1175
     38 H           0.0740    4.5129    4.6905 H       1  LIG1        0.0749
     39 H           0.2988    6.0631    4.7594 H       1  LIG1        0.0749
     40 C          -0.0512    5.2389    6.5862 C.ar    1  LIG1       -0.0103
     41 C          -0.8286    6.3045    6.9849 C.ar    1  LIG1       -0.0554
     42 H          -0.9558    7.0218    6.4069 H       1  LIG1        0.0621
     43 C          -1.4190    6.3214    8.2332 C.ar    1  LIG1       -0.0614
     44 H          -1.9532    7.0394    8.4877 H       1  LIG1        0.0618
     45 C          -1.2185    5.2838    9.0895 C.ar    1  LIG1       -0.0617
     46 H          -1.6210    5.2873    9.9274 H       1  LIG1        0.0618
     47 C          -0.4242    4.2379    8.7148 C.ar    1  LIG1       -0.0614
     48 H          -0.2728    3.5395    9.3097 H       1  LIG1        0.0618
     49 C           0.1542    4.2072    7.4675 C.ar    1  LIG1       -0.0554
     50 H           0.6850    3.4852    7.2208 H       1  LIG1        0.0621
     51 C           6.3625    2.7817    0.9989 C.ar    1  LIG1        0.1055
     52 C           6.5857    1.4349    1.1546 C.ar    1  LIG1       -0.0351
     53 H           5.8780    0.8324    1.1315 H       1  LIG1        0.0637
     54 C           7.8794    0.9903    1.3461 C.ar    1  LIG1       -0.0570
     55 H           8.0350    0.0784    1.4467 H       1  LIG1        0.0621
     56 C           8.9417    1.8582    1.3916 C.ar    1  LIG1       -0.0503
     57 C           8.6862    3.1965    1.2167 C.ar    1  LIG1       -0.0570
     58 H           9.3945    3.7980    1.2342 H       1  LIG1        0.0621
     59 C           7.4060    3.6708    1.0159 C.ar    1  LIG1       -0.0351
     60 H           7.2533    4.5794    0.8933 H       1  LIG1        0.0637
     61 C          10.3362    1.3556    1.6207 C.3     1  LIG1       -0.0397
     62 H          10.5012    1.2889    2.5642 H       1  LIG1        0.0278
     63 H          10.9658    1.9655    1.2284 H       1  LIG1        0.0278
     64 H          10.4348    0.4897    1.2167 H       1  LIG1        0.0278
@<TRIPOS>BOND
     1     6     1    2
     2     7     1    2
     3     1    51    1
     4     1     2    1
     5    60    59    1
     6    51    59   ar
     7    51    52   ar
     8    59    57   ar
     9    53    52    1
    10    52    54   ar
    11    64    61    1
    12    57    58    1
    13    57    56   ar
    14    63    61    1
    15    29    28    1
    16    54    56   ar
    17    54    55    1
    18    56    61    1
    19    31    30    1
    20    28    30   ar
    21    28    26   ar
    22    61    62    1
    23    30    32   ar
    24    27    26    1
    25    26    25   ar
    26    32    33    1
    27    32    34   ar
    28     2    12    1
    29     2     9    1
    30    25    34   ar
    31    25    12    1
    32    13    12    1
    33    34    35    1
    34    12    14    1
    35    11     9    1
    36     9    10    1
    37     9     8    1
    38    14     3    1
    39    14     8    1
    40    14    15    1
    41     4    36    2
    42     3    19    1
    43     8    36    1
    44     8    21    1
    45    38    37    1
    46    39    37    1
    47    36     5    1
    48     5    37    1
    49    37    40    1
    50    16    15    1
    51    15    17    2
    52    21    19    1
    53    21    22    2
    54    19    17    1
    55    19    20    1
    56    17    18    1
    57    42    41    1
    58    23    22    1
    59    40    41   ar
    60    40    49   ar
    61    22    24    1
    62    41    43   ar
    63    50    49    1
    64    49    47   ar
    65    43    44    1
    66    43    45   ar
    67    47    45   ar
    68    47    48    1
    69    45    46    1
