@<TRIPOS>MOLECULE
C9 H12 N2 O4
 27 27 0 0 0
SMALL
GASTEIGER

@<TRIPOS>ATOM
      1 O           7.5324    3.9887    2.1896 O.3     1  LIG1       -0.4534
      2 O           3.7762    3.2812    3.8165 O.2     1  LIG1       -0.2695
      3 O           6.4138    4.2613    4.1258 O.2     1  LIG1       -0.2260
      4 O           4.9448    2.1117   -0.0364 O.2     1  LIG1       -0.2698
      5 N           5.5011    3.1502    2.3180 N.am    1  LIG1       -0.2174
      6 N           2.8209    1.5134   -0.5066 N.am    1  LIG1       -0.3002
      7 C           3.7680    1.9607    0.3304 C.2     1  LIG1        0.2511
      8 C           6.4789    3.8401    3.0025 C.2     1  LIG1        0.4066
      9 C           2.1868    1.6960    2.1949 C.2     1  LIG1       -0.0654
     10 C           3.3384    2.2129    1.7461 C.2     1  LIG1        0.0951
     11 C           1.2555    0.9650    1.3009 C.3     1  LIG1       -0.0177
     12 C           4.2077    2.9297    2.7364 C.2     1  LIG1        0.2575
     13 C           8.5902    4.8390    2.7041 C.3     1  LIG1        0.0833
     14 C           3.1586    1.2605   -1.9043 C.3     1  LIG1        0.0035
     15 C           1.4072    1.4715   -0.1189 C.3     1  LIG1        0.0181
     16 H           0.3234    1.1017    1.6059 H       1  LIG1        0.0323
     17 H           1.4526   -0.0040    1.3328 H       1  LIG1        0.0323
     18 H           8.2221    5.7179    2.9306 H       1  LIG1        0.0661
     19 H           9.2867    4.9426    2.0227 H       1  LIG1        0.0661
     20 H           8.9773    4.4297    3.5058 H       1  LIG1        0.0661
     21 H           2.7064    1.9181   -2.4734 H       1  LIG1        0.0429
     22 H           2.8679    0.3588   -2.1519 H       1  LIG1        0.0429
     23 H           4.1282    1.3364   -2.0243 H       1  LIG1        0.0429
     24 H           0.9127    0.8764   -0.7367 H       1  LIG1        0.0467
     25 H           1.0181    2.3788   -0.1890 H       1  LIG1        0.0467
     26 H           2.0125    1.7529    3.1649 H       1  LIG1        0.0582
     27 H           5.6823    2.8894    1.5170 H       1  LIG1        0.1612
@<TRIPOS>BOND
     1    21    14    1
     2    22    14    1
     3    23    14    1
     4    14     6    1
     5    24    15    1
     6     6    15    1
     7     6     7   am
     8    25    15    1
     9    15    11    1
    10     4     7    2
    11     7    10    1
    12    11    17    1
    13    11    16    1
    14    11     9    1
    15    27     5    1
    16    10     9    2
    17    10    12    1
    18    19    13    1
    19     1    13    1
    20     1     8    1
    21     9    26    1
    22     5    12   am
    23     5     8   am
    24    13    18    1
    25    13    20    1
    26    12     2    2
    27     8     3    2
