@<TRIPOS>MOLECULE
?
 37 39 0 0 0
SMALL
GASTEIGER

@<TRIPOS>ATOM
      1 C           1.3871   10.3984   17.6615 C.3     1  LIG1        0.1556
      2 H           2.1614   10.3795   17.0285 H       1  LIG1        0.0596
      3 C           1.7953   11.0874   18.9408 C.3     1  LIG1        0.1152
      4 H           2.7036   10.9341   19.3296 H       1  LIG1        0.0645
      5 C           1.1759   12.3998   19.0190 C.3     1  LIG1        0.1119
      6 C           0.3392   12.6458   17.7803 C.3     1  LIG1        0.0610
      7 H          -0.5940   12.8789   18.0549 H       1  LIG1        0.0506
      8 C           0.9408    8.9701   17.9688 C.3     1  LIG1        0.4092
      9 C           1.7303   13.5607   19.7971 C.3     1  LIG1       -0.0318
     10 H           2.3751   14.0471   19.2427 H       1  LIG1        0.0259
     11 H           2.1776   13.2299   20.6043 H       1  LIG1        0.0259
     12 H           0.9997   14.1623   20.0518 H       1  LIG1        0.0259
     13 C           0.8992   13.7629   16.9207 C.3     1  LIG1       -0.0451
     14 H           1.8146   13.5402   16.6519 H       1  LIG1        0.0246
     15 H           0.9042   14.5989   17.4341 H       1  LIG1        0.0246
     16 H           0.3412   13.8730   16.1222 H       1  LIG1        0.0246
     17 C           0.7123   11.1723   14.3912 C.ar    1  LIG1        0.1056
     18 C           1.4434   10.0443   14.0210 C.ar    1  LIG1       -0.0332
     19 H           1.3043    9.2126   14.4584 H       1  LIG1        0.0638
     20 C           2.3802   10.1592   12.9989 C.ar    1  LIG1       -0.0296
     21 H           2.8920    9.4078   12.7222 H       1  LIG1        0.0641
     22 C           2.5488   11.3843   12.3974 C.ar    1  LIG1        0.1263
     23 C           1.8065   12.5011   12.7280 C.ar    1  LIG1       -0.0296
     24 H           1.9354   13.3254   12.2732 H       1  LIG1        0.0641
     25 C           0.8687   12.3866   13.7418 C.ar    1  LIG1       -0.0332
     26 H           0.3371   13.1344   13.9887 H       1  LIG1        0.0638
     27 F          -0.3214    8.8627   18.3783 F       1  LIG1       -0.1688
     28 F           1.7186    8.4603   18.9431 F       1  LIG1       -0.1688
     29 F           1.0972    8.1472   16.9116 F       1  LIG1       -0.1688
     30 N           0.3407   11.2842   17.1336 N.3     1  LIG1       -0.1567
     31 N           3.6028   11.5039   11.3664 N.pl3   1  LIG1        0.0564
     32 O           0.6616   11.2925   19.8016 O.3     1  LIG1       -0.3614
     33 O          -1.3993   12.0824   15.6181 O.2     1  LIG1       -0.1528
     34 O          -0.8789    9.6570   15.7248 O.2     1  LIG1       -0.1528
     35 O           3.6617   12.5417   10.7264 O.2     1  LIG1       -0.1261
     36 O           4.3720   10.5591   11.2325 O.2     1  LIG1       -0.1261
     37 S          -0.4419   11.0210   15.7301 S.O2    1  LIG1        0.0618
@<TRIPOS>BOND
     1    35    31    2
     2    36    31    2
     3    31    22    1
     4    24    23    1
     5    22    23   ar
     6    22    20   ar
     7    21    20    1
     8    23    25   ar
     9    20    18   ar
    10    25    26    1
    11    25    17   ar
    12    18    17   ar
    13    18    19    1
    14    17    37    1
    15    33    37    2
    16    34    37    2
    17    37    30    1
    18    16    13    1
    19    14    13    1
    20    29     8    1
    21    13    15    1
    22    13     6    1
    23     2     1    1
    24    30     1    1
    25    30     6    1
    26     1     8    1
    27     1     3    1
    28     6     7    1
    29     6     5    1
    30     8    27    1
    31     8    28    1
    32     3     5    1
    33     3     4    1
    34     3    32    1
    35     5     9    1
    36     5    32    1
    37    10     9    1
    38     9    12    1
    39     9    11    1
