@<TRIPOS>MOLECULE
?
 196 204 0 0 0
SMALL
GASTEIGER

@<TRIPOS>ATOM
      1 BR          8.6908    6.2799    7.5477 Br      1  LIG1        0.0000
      2 BR          3.2785    6.5103   -5.8105 Br      2  LIG2        0.0000
      3 BR         11.5056    3.4872   13.1951 Br      3  LIG3        0.0000
      4 BR          5.4532    3.3089   12.8741 Br      4  LIG4        0.0000
      5 O           7.9805    0.7102    6.1079 O.3     4  LIG4        0.0000
      6 O           5.8545   -0.1114    6.2343 O.3     4  LIG4        0.0000
      7 O           5.9800    2.0428    4.0118 O.2     4  LIG4        0.0000
      8 O           2.3301    4.2282    2.7985 O.3     4  LIG4        0.0000
      9 O           8.6280    7.9538   16.4026 O.2     1  LIG1        0.0000
     10 O           4.8371    5.9002   17.4576 O.3     1  LIG1        0.0000
     11 O          12.0478    1.7975    4.3658 O.2     3  LIG3        0.0000
     12 O           8.6886    4.2344    5.1445 O.2     3  LIG3        0.0000
     13 O           8.4286    3.9406    2.9374 O.3     3  LIG3        0.0000
     14 O           2.7117    7.8988    3.0318 O.2     2  LIG2        0.0000
     15 O           2.9928    9.9558    0.7579 O.3     2  LIG2        0.0000
     16 O           5.0382    8.9911    1.0842 O.3     2  LIG2        0.0000
     17 O           8.5535    9.9210   13.9150 O.3     1  LIG1        0.0000
     18 O          10.7199    9.2240   13.6276 O.3     1  LIG1        0.0000
     19 O           5.3349    5.5869   15.3212 O.2     1  LIG1        0.0000
     20 O           2.6029    4.3180    5.0488 O.2     4  LIG4        0.0000
     21 O          11.9709   -0.0955    6.8936 O.3     3  LIG3        0.0000
     22 O          14.1015    0.7261    7.1518 O.3     3  LIG3        0.0000
     23 O          -0.5372    5.4909    1.8699 O.2     2  LIG2        0.0000
     24 O          -0.9045    5.5956    4.0729 O.3     2  LIG2        0.0000
     25 N           4.0207    3.0519    3.6509 N.am    4  LIG4        0.0000
     26 N           6.6322    6.9553   16.7108 N.am    1  LIG1        0.0000
     27 N          10.0627    2.7790    3.8994 N.am    3  LIG3        0.0000
     28 N           0.7459    6.8636    3.2747 N.am    2  LIG2        0.0000
     29 C           5.6739    2.9642   11.0165 C.ar    4  LIG4        0.0000
     30 C           4.6709    2.4122   10.2724 C.ar    4  LIG4        0.0000
     31 H           3.8727    2.1698   10.6833 H       4  LIG4        0.0000
     32 C           4.8295    2.2106    8.9120 C.ar    4  LIG4        0.0000
     33 H           4.1441    1.8001    8.4345 H       4  LIG4        0.0000
     34 C           5.9627    2.5946    8.2485 C.ar    4  LIG4        0.0000
     35 C           6.9751    3.1299    9.0300 C.ar    4  LIG4        0.0000
     36 H           7.7814    3.3603    8.6288 H       4  LIG4        0.0000
     37 C           6.8223    3.3315   10.3974 C.ar    4  LIG4        0.0000
     38 H           7.5096    3.7203   10.8888 H       4  LIG4        0.0000
     39 C           6.1329    2.4338    6.7423 C.3     4  LIG4        0.0000
     40 H           6.8231    3.0723    6.4689 H       4  LIG4        0.0000
     41 C           4.8471    2.8250    5.9899 C.3     4  LIG4        0.0000
     42 H           4.1073    2.2802    6.3037 H       4  LIG4        0.0000
     43 H           4.6344    3.7539    6.1676 H       4  LIG4        0.0000
     44 C           5.0299    2.6210    4.5032 C.2     4  LIG4        0.0000
     45 C           2.9552    3.9075    3.9854 C.2     4  LIG4        0.0000
     46 C           2.9372    3.5355    1.6838 C.3     4  LIG4        0.0000
     47 H           3.1461    4.1595    0.9717 H       4  LIG4        0.0000
     48 H           2.3329    2.8610    1.3354 H       4  LIG4        0.0000
     49 C           4.1943    2.8946    2.2044 C.3     4  LIG4        0.0000
     50 H           4.2474    1.9586    1.9532 H       4  LIG4        0.0000
     51 H           4.9869    3.3579    1.8893 H       4  LIG4        0.0000
     52 C           6.6659   -1.2217    5.6943 C.3     4  LIG4        0.0000
     53 C           6.3360   -1.3273    4.1881 C.3     4  LIG4        0.0000
     54 H           6.6766   -0.5544    3.7314 H       4  LIG4        0.0000
     55 H           5.3841   -1.3753    4.0715 H       4  LIG4        0.0000
     56 H           6.7434   -2.1194    3.8272 H       4  LIG4        0.0000
     57 C           6.2488   -2.5178    6.4036 C.3     4  LIG4        0.0000
     58 H           5.3493   -2.7410    6.1579 H       4  LIG4        0.0000
     59 H           6.2999   -2.3930    7.3545 H       4  LIG4        0.0000
     60 H           6.8391   -3.2283    6.1426 H       4  LIG4        0.0000
     61 C           8.1292   -0.7489    5.9927 C.3     4  LIG4        0.0000
     62 C           9.1210   -1.0321    4.9058 C.3     4  LIG4        0.0000
     63 H           9.1673   -1.9778    4.7503 H       4  LIG4        0.0000
     64 H           9.9866   -0.7081    5.1695 H       4  LIG4        0.0000
     65 H           8.8476   -0.5880    4.0993 H       4  LIG4        0.0000
     66 C           8.6508   -1.2409    7.3240 C.3     4  LIG4        0.0000
     67 H           8.0261   -1.0129    8.0167 H       4  LIG4        0.0000
     68 H           9.4979   -0.8257    7.5086 H       4  LIG4        0.0000
     69 H           8.7613   -2.1938    7.2920 H       4  LIG4        0.0000
     70 C           8.7345    6.6294    9.4201 C.ar    1  LIG1        0.0000
     71 C           7.6487    7.1526   10.0656 C.ar    1  LIG1        0.0000
     72 H           6.8812    7.3662    9.5853 H       1  LIG1        0.0000
     73 C           7.6857    7.3638   11.4357 C.ar    1  LIG1        0.0000
     74 H           6.9421    7.7262   11.8591 H       1  LIG1        0.0000
     75 C           8.8178    7.0451   12.1992 C.ar    1  LIG1        0.0000
     76 C           9.9040    6.5237   11.4912 C.ar    1  LIG1        0.0000
     77 H          10.6832    6.3221   11.9549 H       1  LIG1        0.0000
     78 C           9.8621    6.2981   10.1211 C.ar    1  LIG1        0.0000
     79 H          10.5940    5.9261    9.6839 H       1  LIG1        0.0000
     80 C           8.9315    7.3463   13.6887 C.3     1  LIG1        0.0000
     81 H           9.6366    6.7734   14.0566 H       1  LIG1        0.0000
     82 C           7.6408    7.0206   14.4203 C.3     1  LIG1        0.0000
     83 H           6.9162    7.5270   14.0219 H       1  LIG1        0.0000
     84 H           7.4425    6.0773   14.3051 H       1  LIG1        0.0000
     85 C           7.7004    7.3292   15.8862 C.2     1  LIG1        0.0000
     86 C           5.5915    6.0917   16.3637 C.2     1  LIG1        0.0000
     87 C           6.6140    7.2846   18.1350 C.3     1  LIG1        0.0000
     88 H           6.6272    8.2423   18.2766 H       1  LIG1        0.0000
     89 H           7.3625    6.8814   18.6014 H       1  LIG1        0.0000
     90 C          11.7133    3.1587   11.3219 C.ar    3  LIG3        0.0000
     91 C          10.7194    2.5154   10.6195 C.ar    3  LIG3        0.0000
     92 H           9.9546    2.2130   11.0512 H       3  LIG3        0.0000
     93 C          10.8805    2.3258    9.2591 C.ar    3  LIG3        0.0000
     94 H          10.2092    1.8818    8.7940 H       3  LIG3        0.0000
     95 C          11.9863    2.7607    8.5497 C.ar    3  LIG3        0.0000
     96 C          12.9690    3.3987    9.3104 C.ar    3  LIG3        0.0000
     97 H          13.7419    3.7011    8.8884 H       3  LIG3        0.0000
     98 C          12.8258    3.5979   10.6819 C.ar    3  LIG3        0.0000
     99 H          13.4953    4.0299   11.1595 H       3  LIG3        0.0000
    100 C          12.1932    2.4861    7.0713 C.3     3  LIG3        0.0000
    101 H          12.8750    3.1083    6.7409 H       3  LIG3        0.0000
    102 C          10.8988    2.7266    6.2662 C.3     3  LIG3        0.0000
    103 H          10.1886    2.1770    6.6313 H       3  LIG3        0.0000
    104 H          10.6348    3.6555    6.3578 H       3  LIG3        0.0000
    105 C          11.0758    2.4002    4.8003 C.2     3  LIG3        0.0000
    106 C           9.0326    3.7011    4.1284 C.2     3  LIG3        0.0000
    107 C           8.9477    3.0795    1.8976 C.3     3  LIG3        0.0000
    108 H           9.1687    3.5955    1.1064 H       3  LIG3        0.0000
    109 H           8.2968    2.4050    1.6575 H       3  LIG3        0.0000
    110 C          10.1933    2.4386    2.4820 C.3     3  LIG3        0.0000
    111 H          10.1946    1.4785    2.3460 H       3  LIG3        0.0000
    112 H          11.0000    2.8178    2.0989 H       3  LIG3        0.0000
    113 C           3.2692    6.8094   -3.9230 C.ar    2  LIG2        0.0000
    114 C           2.1685    7.4286   -3.3524 C.ar    2  LIG2        0.0000
    115 H           1.4637    7.7094   -3.8910 H       2  LIG2        0.0000
    116 C           2.1140    7.6398   -1.9656 C.ar    2  LIG2        0.0000
    117 H           1.3839    8.0815   -1.5964 H       2  LIG2        0.0000
    118 C           3.1317    7.1982   -1.1397 C.ar    2  LIG2        0.0000
    119 C           4.2278    6.5861   -1.7421 C.ar    2  LIG2        0.0000
    120 H           4.9352    6.3029   -1.2077 H       2  LIG2        0.0000
    121 C           4.3026    6.3773   -3.1456 C.ar    2  LIG2        0.0000
    122 H           5.0393    5.9573   -3.5259 H       2  LIG2        0.0000
    123 C           3.1352    7.3792    0.3748 C.3     2  LIG2        0.0000
    124 H           3.7363    6.6990    0.7413 H       2  LIG2        0.0000
    125 C           3.8530   11.0193    1.3007 C.3     2  LIG2        0.0000
    126 C           3.5313   12.3106    0.6136 C.3     2  LIG2        0.0000
    127 H           2.6218   12.5554    0.8037 H       2  LIG2        0.0000
    128 H           3.6430   12.2050   -0.3345 H       2  LIG2        0.0000
    129 H           4.1210   12.9995    0.9315 H       2  LIG2        0.0000
    130 C           1.7535    7.1216    0.9787 C.3     2  LIG2        0.0000
    131 H           1.1082    7.7310    0.5886 H       2  LIG2        0.0000
    132 H           1.4722    6.2141    0.7774 H       2  LIG2        0.0000
    133 C           1.7973    7.3182    2.4682 C.2     2  LIG2        0.0000
    134 C          -0.2577    5.9405    2.9471 C.2     2  LIG2        0.0000
    135 C           0.8364    7.0446    4.7350 C.3     2  LIG2        0.0000
    136 H           0.8142    7.9831    4.9807 H       2  LIG2        0.0000
    137 H           1.6374    6.6342    5.0974 H       2  LIG2        0.0000
    138 C           9.3212   11.1129   13.5541 C.3     1  LIG1        0.0000
    139 C          10.7994   10.6689   13.8484 C.3     1  LIG1        0.0000
    140 C          12.8089   -1.2563    7.2782 C.3     3  LIG3        0.0000
    141 C          12.3952   -2.4626    6.4564 C.3     3  LIG3        0.0000
    142 H          12.4278   -2.2418    5.5235 H       3  LIG3        0.0000
    143 H          11.5008   -2.7194    6.6937 H       3  LIG3        0.0000
    144 H          12.9951   -3.1923    6.6341 H       3  LIG3        0.0000
    145 C          14.2594   -0.7201    6.9686 C.3     3  LIG3        0.0000
    146 C          15.3282   -1.2601    7.9112 C.3     3  LIG3        0.0000
    147 H          15.1218   -1.0033    8.8121 H       3  LIG3        0.0000
    148 H          16.1838   -0.9001    7.6641 H       3  LIG3        0.0000
    149 H          15.3554   -2.2178    7.8501 H       3  LIG3        0.0000
    150 C           5.2698   10.4481    1.0842 C.3     2  LIG2        0.0000
    151 C           6.3027   10.7721    2.1156 C.3     2  LIG2        0.0000
    152 H           7.1321   10.3473    1.8810 H       2  LIG2        0.0000
    153 H           6.0101   10.4505    2.9721 H       2  LIG2        0.0000
    154 H           6.4284   11.7226    2.1544 H       2  LIG2        0.0000
    155 C           5.8167   10.7769   -0.3512 C.3     2  LIG2        0.0000
    156 H           5.1651   10.5225   -1.0078 H       2  LIG2        0.0000
    157 H           6.6313   10.2921   -0.5025 H       2  LIG2        0.0000
    158 H           5.9877   11.7202   -0.4192 H       2  LIG2        0.0000
    159 C           3.5317   11.1441    2.7888 C.3     2  LIG2        0.0000
    160 H           3.7334   10.3161    3.2317 H       2  LIG2        0.0000
    161 H           2.6001   11.3481    2.8985 H       2  LIG2        0.0000
    162 H           4.0597   11.8498    3.1720 H       2  LIG2        0.0000
    163 C          -0.4007    6.3269    5.1765 C.3     2  LIG2        0.0000
    164 H          -0.1925    5.7245    5.9080 H       2  LIG2        0.0000
    165 H          -1.0642    6.9654    5.4833 H       2  LIG2        0.0000
    166 C          12.5474   -1.4641    8.7718 C.3     3  LIG3        0.0000
    167 H          12.8159   -0.6793    9.2549 H       3  LIG3        0.0000
    168 H          13.0492   -2.2202    9.0828 H       3  LIG3        0.0000
    169 H          11.6108   -1.6225    8.9120 H       3  LIG3        0.0000
    170 C          14.6720   -0.9337    5.5221 C.3     3  LIG3        0.0000
    171 H          15.4935   -0.4656    5.3514 H       3  LIG3        0.0000
    172 H          13.9863   -0.5977    4.9405 H       3  LIG3        0.0000
    173 H          14.7971   -1.8698    5.3583 H       3  LIG3        0.0000
    174 C          11.1975   10.8609   15.3087 C.3     1  LIG1        0.0000
    175 H          12.0495   10.4457   15.4656 H       1  LIG1        0.0000
    176 H          10.5369   10.4601   15.8765 H       1  LIG1        0.0000
    177 H          11.2598   11.7994   15.5031 H       1  LIG1        0.0000
    178 C          11.8515   11.2377   12.8933 C.3     1  LIG1        0.0000
    179 H          11.6180   11.0121   11.9896 H       1  LIG1        0.0000
    180 H          12.7108   10.8657   13.1043 H       1  LIG1        0.0000
    181 H          11.8841   12.1930   12.9849 H       1  LIG1        0.0000
    182 C           8.8280   12.2866   14.4008 C.3     1  LIG1        0.0000
    183 H           8.8020   12.0250   15.3240 H       1  LIG1        0.0000
    184 H           7.9463   12.5386   14.1149 H       1  LIG1        0.0000
    185 H           9.4248   13.0307   14.2953 H       1  LIG1        0.0000
    186 C           9.0392   11.3625   12.0743 C.3     1  LIG1        0.0000
    187 H           8.0908   11.4106   11.9327 H       1  LIG1        0.0000
    188 H           9.4048   10.6449   11.5523 H       1  LIG1        0.0000
    189 H           9.4447   12.1906   11.8078 H       1  LIG1        0.0000
    190 C           5.3185    6.6870   18.5681 C.3     1  LIG1        0.0000
    191 H           5.4472    6.1277   19.3497 H       1  LIG1        0.0000
    192 H           4.6821    7.3854   18.7902 H       1  LIG1        0.0000
    193 B           6.6580    0.9937    6.3259 B       4  LIG4        0.0000
    194 B           9.4176    8.8447   13.8067 B       1  LIG1        0.0000
    195 B          12.7787    1.0225    6.9728 B       3  LIG3        0.0000
    196 B           3.7291    8.7895    0.7913 B       2  LIG2        0.0000
@<TRIPOS>BOND
     1     2   113    1
     2   113   114   ar
     3   113   121   ar
     4   115   114    1
     5   122   121    1
     6   114   116   ar
     7   121   119   ar
     8   116   117    1
     9   116   118   ar
    10   119   120    1
    11   119   118   ar
    12   118   123    1
    13   156   155    1
    14   157   155    1
    15   158   155    1
    16   155   150    1
    17   128   126    1
    18   123   124    1
    19   123   196    1
    20   123   130    1
    21   131   130    1
    22   126   127    1
    23   126   129    1
    24   126   125    1
    25    15   196    1
    26    15   125    1
    27   132   130    1
    28   196    16    1
    29    47    46    1
    30   130   133    1
    31    16   150    1
    32   150   125    1
    33   150   151    1
    34   108   107    1
    35   125   159    1
    36    48    46    1
    37   109   107    1
    38    46    49    1
    39    46     8    1
    40    23   134    2
    41   152   151    1
    42    51    49    1
    43   107   110    1
    44   107    13    1
    45    50    49    1
    46   112   110    1
    47   151   154    1
    48   151   153    1
    49    49    25    1
    50   111   110    1
    51   133    14    2
    52   133    28   am
    53   110    27    1
    54   159   161    1
    55   159   162    1
    56   159   160    1
    57     8    45    1
    58    13   106    1
    59   134    28   am
    60   134    24    1
    61    28   135    1
    62    25    45   am
    63    25    44   am
    64    54    53    1
    65    56    53    1
    66    27   106   am
    67    27   105   am
    68    45    20    2
    69     7    44    2
    70    55    53    1
    71    24   163    1
    72    65    62    1
    73   106    12    2
    74    53    52    1
    75    11   105    2
    76    44    41    1
    77   135   136    1
    78   135   137    1
    79   135   163    1
    80    63    62    1
    81   105   102    1
    82    62    64    1
    83    62    61    1
    84   172   170    1
    85   163   165    1
    86   163   164    1
    87   171   170    1
    88   173   170    1
    89   170   145    1
    90   142   141    1
    91    52    61    1
    92    52     6    1
    93    52    57    1
    94    41    43    1
    95    41    42    1
    96    41    39    1
    97    61     5    1
    98    61    66    1
    99     5   193    1
   100    60    57    1
   101    58    57    1
   102     6   193    1
   103   102   104    1
   104   102   103    1
   105   102   100    1
   106   193    39    1
   107    57    59    1
   108   141   144    1
   109   141   143    1
   110   141   140    1
   111    40    39    1
   112   101   100    1
   113    39    34    1
   114    21   195    1
   115    21   140    1
   116   145    22    1
   117   145   140    1
   118   145   146    1
   119   195   100    1
   120   195    22    1
   121   100    95    1
   122   140   166    1
   123    69    66    1
   124    66    68    1
   125    66    67    1
   126     1    70    1
   127   148   146    1
   128   149   146    1
   129   146   147    1
   130    34    32   ar
   131    34    35   ar
   132    33    32    1
   133    95    93   ar
   134    95    96   ar
   135    36    35    1
   136   166   169    1
   137   166   168    1
   138   166   167    1
   139    94    93    1
   140    97    96    1
   141    32    30   ar
   142    35    37   ar
   143    93    91   ar
   144    96    98   ar
   145    70    71   ar
   146    70    78   ar
   147    72    71    1
   148    79    78    1
   149    71    73   ar
   150    78    76   ar
   151    30    31    1
   152    30    29   ar
   153    37    38    1
   154    37    29   ar
   155    91    92    1
   156    91    90   ar
   157    98    99    1
   158    98    90   ar
   159    29     4    1
   160    90     3    1
   161    73    74    1
   162    73    75   ar
   163    76    77    1
   164    76    75   ar
   165   188   186    1
   166   189   186    1
   167   187   186    1
   168   179   178    1
   169   186   138    1
   170    75    80    1
   171   178   181    1
   172   178   180    1
   173   178   139    1
   174   138   139    1
   175   138    17    1
   176   138   182    1
   177    18   194    1
   178    18   139    1
   179    80   194    1
   180    80    81    1
   181    80    82    1
   182   194    17    1
   183   139   174    1
   184    83    82    1
   185   184   182    1
   186   185   182    1
   187    84    82    1
   188   182   183    1
   189    82    85    1
   190   174   175    1
   191   174   177    1
   192   174   176    1
   193    19    86    2
   194    85     9    2
   195    85    26   am
   196    86    26   am
   197    86    10    1
   198    26    87    1
   199    10   190    1
   200    87    88    1
   201    87   190    1
   202    87    89    1
   203   190   192    1
   204   190   191    1
