@<TRIPOS>MOLECULE
1511882.cif
 80 88 0 0 0
SMALL
GASTEIGER

@<TRIPOS>ATOM
      1 O           8.0446   -0.6695   17.2887 O.3     1  LIG1       -0.4945
      2 O           2.7065    2.0245    0.8047 O.3     2  LIG2       -0.4945
      3 C           9.2037   -1.1639   17.9702 C.3     1  LIG1        0.0788
      4 H           9.2938   -2.1259   17.8053 H       1  LIG1        0.0660
      5 H           9.1103   -1.0051   18.9317 H       1  LIG1        0.0660
      6 H          10.0010   -0.6999   17.6381 H       1  LIG1        0.0660
      7 C           7.9983   -0.7401   15.9243 C.ar    1  LIG1        0.1278
      8 C           6.7984   -0.1488   15.4290 C.ar    1  LIG1        0.0250
      9 C           6.3418   -0.1062   14.0191 C.ar    1  LIG1       -0.0061
     10 C           5.0315    0.5139   14.0396 C.ar    1  LIG1       -0.0018
     11 C           4.0663    0.8248   13.0178 C.ar    1  LIG1       -0.0019
     12 C           3.9676    0.1812   11.7160 C.ar    1  LIG1       -0.0096
     13 C           4.5239   -1.0921   11.4484 C.ar    1  LIG1       -0.0534
     14 H           5.0108   -1.5383   12.1312 H       1  LIG1        0.0624
     15 C           4.3783   -1.6979   10.2257 C.ar    1  LIG1       -0.0611
     16 H           4.7500   -2.5592   10.0781 H       1  LIG1        0.0618
     17 C           3.6816   -1.0505    9.1910 C.ar    1  LIG1       -0.0612
     18 H           3.6380   -1.4396    8.3249 H       1  LIG1        0.0618
     19 C           9.0149   -1.3395   15.2170 C.ar    1  LIG1       -0.0193
     20 H           9.6951   -1.7527   15.7358 H       1  LIG1        0.0654
     21 C           9.1756   -1.4178   13.8223 C.ar    1  LIG1       -0.0583
     22 H           9.9679   -1.8559   13.5356 H       1  LIG1        0.0619
     23 C           8.3708   -0.9627   12.8065 C.ar    1  LIG1       -0.0611
     24 H           8.7188   -1.0573   11.9277 H       1  LIG1        0.0618
     25 C           7.1006   -0.3757   12.9008 C.ar    1  LIG1       -0.0533
     26 H           6.7054   -0.1282   12.0731 H       1  LIG1        0.0624
     27 C           4.8019    0.9480   15.3723 C.ar    1  LIG1       -0.0160
     28 C           3.7149    1.8003   15.6842 C.ar    1  LIG1       -0.0534
     29 H           3.5385    2.0465   16.5843 H       1  LIG1        0.0624
     30 C           2.9277    2.2609   14.6737 C.ar    1  LIG1       -0.0534
     31 H           2.2540    2.9030   14.8638 H       1  LIG1        0.0624
     32 C           3.0935    1.7980   13.3349 C.ar    1  LIG1       -0.0167
     33 C           3.1423    0.7561   10.7108 C.ar    1  LIG1       -0.0173
     34 C           2.3117    1.8678   11.0407 C.ar    1  LIG1       -0.0534
     35 H           1.8054    2.2960   10.3598 H       1  LIG1        0.0624
     36 C           2.2390    2.3165   12.3136 C.ar    1  LIG1       -0.0534
     37 H           1.6068    2.9903   12.5345 H       1  LIG1        0.0624
     38 C           3.0686    0.1424    9.4421 C.ar    1  LIG1       -0.0540
     39 H           2.5820    0.5695    8.7464 H       1  LIG1        0.0624
     40 C           5.8602    0.4969   16.2006 C.ar    1  LIG1       -0.0428
     41 H           5.9128    0.6205   17.1403 H       1  LIG1        0.0631
     42 C           1.6005    2.6523    0.1432 C.3     2  LIG2        0.0788
     43 H           0.7833    2.1384    0.3143 H       2  LIG2        0.0660
     44 H           1.7713    2.6829   -0.8212 H       2  LIG2        0.0660
     45 H           1.4905    3.5643    0.4851 H       2  LIG2        0.0660
     46 C           2.6282    1.8045    2.1477 C.ar    2  LIG2        0.1278
     47 C           3.7972    1.1236    2.6076 C.ar    2  LIG2        0.0250
     48 C           4.1447    0.7960    4.0125 C.ar    2  LIG2       -0.0061
     49 C           5.4653    0.2027    3.9728 C.ar    2  LIG2       -0.0018
     50 C           6.3586   -0.2793    4.9858 C.ar    2  LIG2       -0.0019
     51 C           6.3724    0.1486    6.3801 C.ar    2  LIG2       -0.0096
     52 C           5.7750    1.3514    6.8105 C.ar    2  LIG2       -0.0534
     53 H           5.3058    1.8877    6.1810 H       2  LIG2        0.0624
     54 C           5.8558    1.7659    8.1190 C.ar    2  LIG2       -0.0611
     55 H           5.4592    2.5887    8.3812 H       2  LIG2        0.0618
     56 C           6.5222    0.9755    9.0694 C.ar    2  LIG2       -0.0612
     57 H           6.5310    1.2342    9.9837 H       2  LIG2        0.0618
     58 C           4.8078    0.6519    1.7965 C.ar    2  LIG2       -0.0428
     59 H           4.8318    0.7226    0.8503 H       2  LIG2        0.0631
     60 C           5.8080    0.0417    2.6041 C.ar    2  LIG2       -0.0160
     61 C           7.1557   -0.1648    8.6733 C.ar    2  LIG2       -0.0540
     62 H           7.6118   -0.6920    9.3187 H       2  LIG2        0.0624
     63 C           7.1482   -0.5780    7.3216 C.ar    2  LIG2       -0.0173
     64 C           8.0032   -1.6312    6.8650 C.ar    2  LIG2       -0.0534
     65 H           8.4656   -2.1713    7.4964 H       2  LIG2        0.0624
     66 C           8.1582   -1.8628    5.5432 C.ar    2  LIG2       -0.0534
     67 H           8.8057   -2.4957    5.2562 H       2  LIG2        0.0624
     68 C           7.3707   -1.1790    4.5689 C.ar    2  LIG2       -0.0167
     69 C           7.6367   -1.3804    3.1797 C.ar    2  LIG2       -0.0534
     70 H           8.3228   -1.9841    2.9197 H       2  LIG2        0.0624
     71 C           6.9296   -0.7277    2.2244 C.ar    2  LIG2       -0.0534
     72 H           7.1850   -0.7873    1.3118 H       2  LIG2        0.0624
     73 C           3.2970    0.8213    5.0990 C.ar    2  LIG2       -0.0533
     74 H           3.6375    0.4220    5.8903 H       2  LIG2        0.0624
     75 C           2.0014    1.3535    5.2013 C.ar    2  LIG2       -0.0611
     76 H           1.5822    1.2592    6.0483 H       2  LIG2        0.0618
     77 C           1.2625    1.9911    4.2387 C.ar    2  LIG2       -0.0583
     78 H           0.4269    2.3312    4.5367 H       2  LIG2        0.0619
     79 C           1.5424    2.2219    2.8846 C.ar    2  LIG2       -0.0193
     80 H           0.8965    2.7339    2.4128 H       2  LIG2        0.0654
@<TRIPOS>BOND
     1    44    42    1
     2    42    43    1
     3    42    45    1
     4    42     2    1
     5     2    46    1
     6    59    58    1
     7    72    71    1
     8    58    60   ar
     9    58    47   ar
    10    46    47   ar
    11    46    79   ar
    12    71    60   ar
    13    71    69   ar
    14    80    79    1
    15    60    49   ar
    16    47    48    1
    17    79    77   ar
    18    70    69    1
    19    69    68   ar
    20    49    48   ar
    21    49    50   ar
    22    48    73   ar
    23    77    78    1
    24    77    75   ar
    25    68    50   ar
    26    68    66   ar
    27    50    51   ar
    28    73    75   ar
    29    73    74    1
    30    75    76    1
    31    67    66    1
    32    66    64   ar
    33    53    52    1
    34    51    52   ar
    35    51    63   ar
    36    52    54   ar
    37    64    63   ar
    38    64    65    1
    39    63    61   ar
    40    54    55    1
    41    54    56   ar
    42    18    17    1
    43    61    56   ar
    44    61    62    1
    45    39    38    1
    46    56    57    1
    47    17    38   ar
    48    17    15   ar
    49    38    33   ar
    50    16    15    1
    51    15    13   ar
    52    35    34    1
    53    33    34   ar
    54    33    12   ar
    55    34    36   ar
    56    13    12   ar
    57    13    14    1
    58    12    11   ar
    59    24    23    1
    60    26    25    1
    61    36    37    1
    62    36    32   ar
    63    23    25   ar
    64    23    21   ar
    65    25     9   ar
    66    11    32   ar
    67    11    10   ar
    68    32    30   ar
    69    22    21    1
    70    21    19   ar
    71     9    10   ar
    72     9     8    1
    73    10    27   ar
    74    30    31    1
    75    30    28   ar
    76    19    20    1
    77    19     7   ar
    78    27    28   ar
    79    27    40   ar
    80     8     7   ar
    81     8    40   ar
    82    28    29    1
    83     7     1    1
    84    40    41    1
    85     1     3    1
    86     6     3    1
    87     4     3    1
    88     3     5    1
