@<TRIPOS>MOLECULE
?
 94 101 0 0 0
SMALL
GASTEIGER

@<TRIPOS>ATOM
      1 C          12.4990    2.4003    3.0471 C.ar    1  LIG1       -0.0013
      2 C          13.0210    2.1559    4.3607 C.ar    1  LIG1       -0.0012
      3 C          14.3540    1.6699    4.5168 C.ar    1  LIG1       -0.0084
      4 C          14.8701    1.4766    5.8259 C.ar    1  LIG1       -0.0095
      5 C          14.0191    1.6796    6.9150 C.ar    1  LIG1       -0.0451
      6 H          14.3575    1.5190    7.7875 H       1  LIG1        0.0630
      7 C          12.6977    2.1066    6.7870 C.ar    1  LIG1       -0.0095
      8 C          12.1987    2.4041    5.4947 C.ar    1  LIG1       -0.0084
      9 C          10.8857    2.9392    5.2830 C.ar    1  LIG1       -0.0451
     10 H          10.3465    3.1276    6.0420 H       1  LIG1        0.0630
     11 C          10.3745    3.1904    4.0475 C.ar    1  LIG1       -0.0095
     12 C          11.1927    2.9463    2.8732 C.ar    1  LIG1       -0.0087
     13 C          10.7604    3.2845    1.5818 C.ar    1  LIG1       -0.0497
     14 H           9.9064    3.6864    1.4773 H       1  LIG1        0.0627
     15 C          11.5365    3.0524    0.4462 C.ar    1  LIG1       -0.0408
     16 C          12.7877    2.4716    0.6215 C.ar    1  LIG1       -0.0497
     17 H          13.3205    2.2916   -0.1442 H       1  LIG1        0.0627
     18 C          13.2915    2.1411    1.8934 C.ar    1  LIG1       -0.0087
     19 C          14.6096    1.5673    2.0691 C.ar    1  LIG1       -0.0095
     20 C          15.0933    1.3533    3.3295 C.ar    1  LIG1       -0.0451
     21 H          15.9605    0.9763    3.4239 H       1  LIG1        0.0630
     22 C          16.2672    1.0317    6.0865 C.ar    1  LIG1       -0.0171
     23 C          17.3801    1.6183    5.4630 C.ar    1  LIG1       -0.0506
     24 H          17.2440    2.3075    4.8240 H       1  LIG1        0.0625
     25 C          18.6690    1.2163    5.7569 C.ar    1  LIG1       -0.0194
     26 H          19.4040    1.6283    5.3185 H       1  LIG1        0.0654
     27 C          18.8939    0.2064    6.6958 C.ar    1  LIG1        0.1201
     28 C          17.8145   -0.3896    7.3347 C.ar    1  LIG1       -0.0194
     29 H          17.9576   -1.0769    7.9747 H       1  LIG1        0.0654
     30 C          16.5204    0.0286    7.0298 C.ar    1  LIG1       -0.0506
     31 H          15.7883   -0.3790    7.4763 H       1  LIG1        0.0625
     32 O          20.2085   -0.1112    6.9263 O.3     1  LIG1       -0.4951
     33 C          20.4768   -1.0734    7.9441 C.3     1  LIG1        0.0788
     34 H          20.1186   -0.7536    8.7981 H       1  LIG1        0.0660
     35 H          21.4457   -1.2032    8.0240 H       1  LIG1        0.0660
     36 H          20.0505   -1.9247    7.7090 H       1  LIG1        0.0660
     37 C          11.8546    2.2654    8.0034 C.ar    1  LIG1       -0.0171
     38 C          10.6253    1.6163    8.1305 C.ar    1  LIG1       -0.0506
     39 H          10.3284    1.0448    7.4321 H       1  LIG1        0.0625
     40 C           9.8232    1.7844    9.2549 C.ar    1  LIG1       -0.0194
     41 H           8.9919    1.3291    9.3230 H       1  LIG1        0.0654
     42 C          10.2478    2.6247   10.2798 C.ar    1  LIG1        0.1201
     43 C          11.4814    3.2568   10.1844 C.ar    1  LIG1       -0.0194
     44 H          11.7817    3.8161   10.8901 H       1  LIG1        0.0654
     45 C          12.2745    3.0740    9.0633 C.ar    1  LIG1       -0.0506
     46 H          13.1190    3.5057    9.0143 H       1  LIG1        0.0625
     47 O           9.5281    2.8873   11.4107 O.3     1  LIG1       -0.4951
     48 C           8.1744    2.4262   11.4552 C.3     1  LIG1        0.0788
     49 H           7.6664    2.8328   10.7218 H       1  LIG1        0.0660
     50 H           7.7716    2.6791   12.3117 H       1  LIG1        0.0660
     51 H           8.1580    1.4511   11.3618 H       1  LIG1        0.0660
     52 C           8.9773    3.6859    3.9213 C.ar    1  LIG1       -0.0171
     53 C           8.5243    4.7655    4.6679 C.ar    1  LIG1       -0.0506
     54 H           9.1343    5.2318    5.2275 H       1  LIG1        0.0625
     55 C           7.1933    5.1807    4.6144 C.ar    1  LIG1       -0.0194
     56 H           6.9048    5.9263    5.1276 H       1  LIG1        0.0654
     57 C           6.2965    4.4984    3.8089 C.ar    1  LIG1        0.1201
     58 C           6.7368    3.4260    3.0504 C.ar    1  LIG1       -0.0194
     59 H           6.1261    2.9648    2.4879 H       1  LIG1        0.0654
     60 C           8.0515    3.0236    3.1054 C.ar    1  LIG1       -0.0506
     61 H           8.3359    2.2837    2.5815 H       1  LIG1        0.0625
     62 O           4.9637    4.7879    3.7006 O.3     1  LIG1       -0.4951
     63 C           4.4397    5.7432    4.6118 C.3     1  LIG1        0.0788
     64 H           4.6983    5.4994    5.5247 H       1  LIG1        0.0660
     65 H           3.4624    5.7579    4.5432 H       1  LIG1        0.0660
     66 H           4.7961    6.6304    4.3965 H       1  LIG1        0.0660
     67 C          15.4756    1.2581    0.8985 C.ar    1  LIG1       -0.0171
     68 C          15.0877    0.3986   -0.1307 C.ar    1  LIG1       -0.0506
     69 H          14.2315   -0.0100   -0.1012 H       1  LIG1        0.0625
     70 C          15.9344    0.1334   -1.1939 C.ar    1  LIG1       -0.0194
     71 H          15.6494   -0.4490   -1.8884 H       1  LIG1        0.0654
     72 C          17.2025    0.7144   -1.2544 C.ar    1  LIG1        0.1201
     73 C          17.6020    1.5813   -0.2483 C.ar    1  LIG1       -0.0194
     74 H          18.4611    1.9873   -0.2770 H       1  LIG1        0.0654
     75 C          16.7320    1.8506    0.8029 C.ar    1  LIG1       -0.0506
     76 H          17.0039    2.4593    1.4786 H       1  LIG1        0.0625
     77 O          17.9529    0.3815   -2.3476 O.3     1  LIG1       -0.4951
     78 C          19.2683    0.9345   -2.4388 C.3     1  LIG1        0.0788
     79 H          19.2115    1.9129   -2.4462 H       1  LIG1        0.0660
     80 H          19.6958    0.6258   -3.2645 H       1  LIG1        0.0660
     81 H          19.7983    0.6434   -1.6683 H       1  LIG1        0.0660
     82 C          11.0277    3.4967   -0.9348 C.3     1  LIG1       -0.0126
     83 C          11.1411    5.0261   -1.0131 C.3     1  LIG1       -0.0560
     84 H          12.0831    5.2878   -0.9461 H       1  LIG1        0.0238
     85 H          10.6371    5.4287   -0.2757 H       1  LIG1        0.0238
     86 H          10.7759    5.3379   -1.8669 H       1  LIG1        0.0238
     87 C          11.8398    2.8868   -2.0762 C.3     1  LIG1       -0.0560
     88 H          12.7712    3.1839   -2.0098 H       1  LIG1        0.0238
     89 H          11.4651    3.1758   -2.9344 H       1  LIG1        0.0238
     90 H          11.8044    1.9093   -2.0161 H       1  LIG1        0.0238
     91 C           9.5576    3.0822   -1.1348 C.3     1  LIG1       -0.0560
     92 H           9.2525    3.3756   -2.0186 H       1  LIG1        0.0238
     93 H           9.0036    3.5004   -0.4427 H       1  LIG1        0.0238
     94 H           9.4814    2.1080   -1.0700 H       1  LIG1        0.0238
@<TRIPOS>BOND
     1    80    78    1
     2    89    87    1
     3    79    78    1
     4    78    77    1
     5    78    81    1
     6    77    72    1
     7    87    90    1
     8    87    88    1
     9    87    82    1
    10    92    91    1
    11    71    70    1
    12    86    83    1
    13    72    70   ar
    14    72    73   ar
    15    70    68   ar
    16    91    94    1
    17    91    82    1
    18    91    93    1
    19    83    84    1
    20    83    82    1
    21    83    85    1
    22    82    15    1
    23    74    73    1
    24    73    75   ar
    25    17    16    1
    26    68    69    1
    27    68    67   ar
    28    15    16   ar
    29    15    13   ar
    30    16    18   ar
    31    75    67   ar
    32    75    76    1
    33    67    19    1
    34    14    13    1
    35    13    12   ar
    36    18    19   ar
    37    18     1   ar
    38    19    20   ar
    39    59    58    1
    40    61    60    1
    41    12     1   ar
    42    12    11   ar
    43     1     2   ar
    44    58    60   ar
    45    58    57   ar
    46    60    52   ar
    47    20    21    1
    48    20     3   ar
    49    62    57    1
    50    62    63    1
    51    57    55   ar
    52    52    11    1
    53    52    53   ar
    54    11     9   ar
    55     2     3   ar
    56     2     8   ar
    57    66    63    1
    58     3     4   ar
    59    65    63    1
    60    63    64    1
    61    55    53   ar
    62    55    56    1
    63    53    54    1
    64    24    23    1
    65     9     8   ar
    66     9    10    1
    67    26    25    1
    68    23    25   ar
    69    23    22   ar
    70     8     7   ar
    71    25    27   ar
    72     4    22    1
    73     4     5   ar
    74    22    30   ar
    75    27    32    1
    76    27    28   ar
    77     7     5   ar
    78     7    37    1
    79     5     6    1
    80    32    33    1
    81    30    28   ar
    82    30    31    1
    83    28    29    1
    84    39    38    1
    85    36    33    1
    86    33    35    1
    87    33    34    1
    88    37    38   ar
    89    37    45   ar
    90    38    40   ar
    91    46    45    1
    92    45    43   ar
    93    40    41    1
    94    40    42   ar
    95    43    42   ar
    96    43    44    1
    97    42    47    1
    98    49    48    1
    99    51    48    1
   100    47    48    1
   101    48    50    1
