@<TRIPOS>MOLECULE
?
 50 53 0 0 0
SMALL
GASTEIGER

@<TRIPOS>ATOM
      1 BR          7.7210    8.5854    9.6027 Br      1  LIG1       -0.0503
      2 O          -0.7095    8.7737    0.8856 O.2     1  LIG1       -0.2259
      3 O           0.4674   10.2603   -0.2931 O.3     1  LIG1       -0.4481
      4 O           2.6247   10.2989    5.4081 O.2     1  LIG1       -0.2917
      5 N           1.4875    9.3147    1.4360 N.am    1  LIG1       -0.2345
      6 C           0.3280    9.3682    0.7178 C.2     1  LIG1        0.4074
      7 C           1.8236   10.7276   -0.3659 C.3     1  LIG1        0.1133
      8 H           1.8485   11.7151   -0.4268 H       1  LIG1        0.0717
      9 H           2.2796   10.3493   -1.1589 H       1  LIG1        0.0717
     10 C           2.5047   10.2495    0.9248 C.3     1  LIG1        0.0704
     11 H           3.3343    9.7415    0.6931 H       1  LIG1        0.0542
     12 C           2.8532   11.3647    1.9126 C.3     1  LIG1       -0.0244
     13 H           3.2244   10.9377    2.7375 H       1  LIG1        0.0315
     14 C           3.9602   12.2361    1.2948 C.3     1  LIG1       -0.0609
     15 H           4.2545   12.9042    1.9489 H       1  LIG1        0.0233
     16 H           3.6129   12.6907    0.4992 H       1  LIG1        0.0233
     17 H           4.7195   11.6702    1.0417 H       1  LIG1        0.0233
     18 C           1.6442   12.2004    2.3234 C.3     1  LIG1       -0.0609
     19 H           0.9339   11.6089    2.6492 H       1  LIG1        0.0233
     20 H           1.3185   12.7060    1.5496 H       1  LIG1        0.0233
     21 H           1.9029   12.8225    3.0355 H       1  LIG1        0.0233
     22 C           1.7557    8.4281    2.5025 C.2     1  LIG1        0.0165
     23 C           2.9821    8.1614    2.9538 C.2     1  LIG1       -0.0625
     24 H           3.7697    8.5054    2.5494 H       1  LIG1        0.0590
     25 C           3.0047    7.2626    4.1666 C.3     1  LIG1       -0.0113
     26 H           3.9430    7.0967    4.4694 H       1  LIG1        0.0350
     27 C           0.6452    7.7664    3.2857 C.3     1  LIG1       -0.0020
     28 H          -0.2492    7.9906    2.8995 H       1  LIG1        0.0361
     29 C           0.8840    6.2513    3.2760 C.3     1  LIG1       -0.0445
     30 H           0.8071    5.9076    2.3512 H       1  LIG1        0.0272
     31 H           0.1980    5.8014    3.8313 H       1  LIG1        0.0272
     32 C           2.2939    5.9388    3.8344 C.3     1  LIG1       -0.0455
     33 H           2.2170    5.3836    4.6502 H       1  LIG1        0.0271
     34 H           2.8178    5.4346    3.1629 H       1  LIG1        0.0271
     35 C           0.7653    8.2790    4.7379 C.3     1  LIG1       -0.0346
     36 H           0.6216    9.2583    4.7573 H       1  LIG1        0.0278
     37 H           0.0696    7.8537    5.2984 H       1  LIG1        0.0278
     38 C           2.1628    7.9485    5.3055 C.3     1  LIG1        0.0290
     39 H           2.0599    7.3051    6.0638 H       1  LIG1        0.0387
     40 C           2.9062    9.1730    5.7975 C.2     1  LIG1        0.1668
     41 C           4.0653    8.9916    6.7359 C.ar    1  LIG1        0.0178
     42 C           5.0005   10.0243    6.8394 C.ar    1  LIG1       -0.0502
     43 H           4.8878   10.8131    6.3228 H       1  LIG1        0.0625
     44 C           6.0917    9.9113    7.6878 C.ar    1  LIG1       -0.0471
     45 H           6.7364   10.6068    7.7422 H       1  LIG1        0.0629
     46 C           6.2240    8.7665    8.4548 C.ar    1  LIG1        0.0179
     47 C           5.2968    7.7421    8.4044 C.ar    1  LIG1       -0.0471
     48 H           5.3890    6.9772    8.9605 H       1  LIG1        0.0629
     49 C           4.2250    7.8540    7.5208 C.ar    1  LIG1       -0.0502
     50 H           3.5958    7.1457    7.4543 H       1  LIG1        0.0625
@<TRIPOS>BOND
     1     9     7    1
     2     8     7    1
     3     7     3    1
     4     7    10    1
     5     3     6    1
     6    16    14    1
     7    11    10    1
     8     6     2    2
     9     6     5   am
    10    10     5    1
    11    10    12    1
    12    17    14    1
    13    14    12    1
    14    14    15    1
    15     5    22    1
    16    20    18    1
    17    12    18    1
    18    12    13    1
    19    18    19    1
    20    18    21    1
    21    30    29    1
    22    22    23    2
    23    22    27    1
    24    24    23    1
    25    28    27    1
    26    23    25    1
    27    34    32    1
    28    29    27    1
    29    29    31    1
    30    29    32    1
    31    27    35    1
    32    32    25    1
    33    32    33    1
    34    25    26    1
    35    25    38    1
    36    35    36    1
    37    35    37    1
    38    35    38    1
    39    38    40    1
    40    38    39    1
    41     4    40    2
    42    40    41    1
    43    43    42    1
    44    41    42   ar
    45    41    49   ar
    46    42    44   ar
    47    50    49    1
    48    49    47   ar
    49    44    45    1
    50    44    46   ar
    51    47    46   ar
    52    47    48    1
    53    46     1    1
