@<TRIPOS>MOLECULE
1512610.cif
 50 51 0 0 0
SMALL
GASTEIGER

@<TRIPOS>ATOM
      1 N           5.7913    9.4068    2.9024 N.3     1  LIG1       -0.2969
      2 N           8.7240   10.2634    3.1028 N.3     1  LIG1       -0.3147
      3 H           8.1714   10.0988    3.7540 H       1  LIG1        0.1220
      4 N           9.4429    7.4347    3.4356 N.3     1  LIG1       -0.3147
      5 H           8.7176    7.1780    3.8416 H       1  LIG1        0.1220
      6 N           6.8385    6.7188    2.1410 N.3     1  LIG1       -0.3147
      7 H           7.0031    6.7242    2.9950 H       1  LIG1        0.1220
      8 N           4.1861    8.8046    7.4452 N.ar    1  LIG1       -0.2629
      9 C           5.8889   10.3576    1.7826 C.3     1  LIG1        0.0004
     10 H           5.0072   10.7637    1.6469 H       1  LIG1        0.0427
     11 H           6.1087    9.8551    0.9703 H       1  LIG1        0.0427
     12 C           6.9081   11.4731    1.9428 C.3     1  LIG1       -0.0276
     13 H           6.7770   12.1196    1.2176 H       1  LIG1        0.0290
     14 H           6.7281   11.9388    2.7872 H       1  LIG1        0.0290
     15 C           8.3613   11.0356    1.9378 C.3     1  LIG1       -0.0029
     16 H           8.5295   10.4984    1.1351 H       1  LIG1        0.0424
     17 H           8.9329   11.8305    1.8907 H       1  LIG1        0.0424
     18 C          10.1022    9.7858    3.0850 C.3     1  LIG1        0.0084
     19 H          10.6909   10.4876    3.4329 H       1  LIG1        0.0436
     20 H          10.3671    9.6006    2.1604 H       1  LIG1        0.0436
     21 C          10.2776    8.5371    3.9096 C.3     1  LIG1        0.0084
     22 H          11.2181    8.2631    3.8811 H       1  LIG1        0.0436
     23 H          10.0497    8.7342    4.8428 H       1  LIG1        0.0436
     24 C           9.9430    6.8044    2.2129 C.3     1  LIG1       -0.0029
     25 H          10.8455    6.4578    2.3733 H       1  LIG1        0.0424
     26 H          10.0000    7.4769    1.5026 H       1  LIG1        0.0424
     27 C           9.0369    5.6618    1.7565 C.3     1  LIG1       -0.0278
     28 H           9.5189    5.1257    1.0922 H       1  LIG1        0.0290
     29 H           8.8497    5.0835    2.5261 H       1  LIG1        0.0290
     30 C           7.7193    6.1102    1.1547 C.3     1  LIG1       -0.0029
     31 H           7.8965    6.7556    0.4396 H       1  LIG1        0.0424
     32 H           7.2689    5.3358    0.7556 H       1  LIG1        0.0424
     33 C           5.6538    7.3155    1.5445 C.3     1  LIG1        0.0087
     34 H           5.0298    6.6073    1.2811 H       1  LIG1        0.0437
     35 H           5.9097    7.8105    0.7384 H       1  LIG1        0.0437
     36 C           4.9729    8.2480    2.5086 C.3     1  LIG1        0.0118
     37 H           4.1436    8.5729    2.1003 H       1  LIG1        0.0439
     38 H           4.7305    7.7466    3.3144 H       1  LIG1        0.0439
     39 C           5.2098   10.0728    4.0633 C.3     1  LIG1        0.0255
     40 H           4.2738   10.2851    3.8639 H       1  LIG1        0.0476
     41 H           5.6800   10.9208    4.2040 H       1  LIG1        0.0476
     42 C           5.2568    9.2833    5.3411 C.ar    1  LIG1       -0.0153
     43 C           4.2069    9.3710    6.2345 C.ar    1  LIG1        0.0320
     44 H           3.4509    9.8649    5.9728 H       1  LIG1        0.0833
     45 C           5.2568    8.1072    7.7840 C.ar    1  LIG1        0.0276
     46 H           5.2704    7.7119    8.6363 H       1  LIG1        0.0829
     47 C           6.3456    7.9220    6.9765 C.ar    1  LIG1       -0.0433
     48 H           7.0745    7.4022    7.2642 H       1  LIG1        0.0633
     49 C           6.3492    8.5166    5.7260 C.ar    1  LIG1       -0.0545
     50 H           7.0799    8.4028    5.1467 H       1  LIG1        0.0622
@<TRIPOS>BOND
     1    31    30    1
     2    35    33    1
     3    32    30    1
     4    11     9    1
     5    28    27    1
     6    16    15    1
     7    30    27    1
     8    30     6    1
     9    13    12    1
    10    34    33    1
    11    26    24    1
    12    33     6    1
    13    33    36    1
    14    10     9    1
    15    27    24    1
    16    27    29    1
    17     9    12    1
    18     9     1    1
    19    17    15    1
    20    15    12    1
    21    15     2    1
    22    12    14    1
    23    37    36    1
    24     6     7    1
    25    20    18    1
    26    24    25    1
    27    24     4    1
    28    36     1    1
    29    36    38    1
    30     1    39    1
    31    18     2    1
    32    18    19    1
    33    18    21    1
    34     2     3    1
    35     4     5    1
    36     4    21    1
    37    40    39    1
    38    22    21    1
    39    21    23    1
    40    39    41    1
    41    39    42    1
    42    50    49    1
    43    42    49   ar
    44    42    43   ar
    45    49    47   ar
    46    44    43    1
    47    43     8   ar
    48    47    48    1
    49    47    45   ar
    50     8    45   ar
    51    45    46    1
