@<TRIPOS>MOLECULE
?
 60 65 0 0 0
SMALL
GASTEIGER

@<TRIPOS>ATOM
      1 F           2.8868    6.8909   10.8962 F       1  LIG1       -0.1682
      2 F           4.7711    7.7845   11.2982 F       1  LIG1       -0.1682
      3 F           3.2926    8.8840   10.2360 F       1  LIG1       -0.1682
      4 F           6.1575    2.2986   10.8139 F       1  LIG1       -0.1682
      5 F           8.0816    2.9482   10.1839 F       1  LIG1       -0.1682
      6 F           6.6857    4.3398   11.0219 F       1  LIG1       -0.1682
      7 O          -3.0332    5.2499    8.5103 O.2     1  LIG1       -0.2736
      8 O           0.1369    7.2070   12.3360 O.2     1  LIG1       -0.2737
      9 O          -0.8325    5.7172    5.7447 O.3     1  LIG1       -0.4678
     10 O           4.9003    5.9011    9.2035 O.3     1  LIG1       -0.3357
     11 O           4.8783    3.6767    8.8813 O.3     1  LIG1       -0.3357
     12 N          -0.3559    5.5323   10.9224 N.am    1  LIG1       -0.3024
     13 H           0.3228    5.0983   11.2223 H       1  LIG1        0.1495
     14 N          -2.6713    6.7946   10.1129 N.am    1  LIG1       -0.2911
     15 N           1.3978    4.9815    5.4491 N.pl3   1  LIG1       -0.2078
     16 C          -2.3336    5.6975    9.4071 C.2     1  LIG1        0.2363
     17 CA         -1.1428    4.8734    9.8857 C.3     1  LIG1        0.1009
     18 HA         -1.5512    4.1117   10.3467 H       1  LIG1        0.0595
     19 C          -0.5752    6.7354   11.4564 C.2     1  LIG1        0.2345
     20 CA         -1.7497    7.5737   10.9454 C.3     1  LIG1        0.1058
     21 HA         -2.2524    7.8792   11.7292 H       1  LIG1        0.0600
     22 C          -1.2253    8.8564   10.1981 C.3     1  LIG1       -0.0004
     23 H          -1.9217    9.5305   10.1629 H       1  LIG1        0.0336
     24 H          -0.4621    9.2282   10.6674 H       1  LIG1        0.0336
     25 C          -0.8303    8.4467    8.8093 C.ar    1  LIG1       -0.0446
     26 C           0.1223    7.4301    8.7316 C.ar    1  LIG1       -0.0508
     27 H           0.8053    7.3685    9.3605 H       1  LIG1        0.0624
     28 C           0.0288    6.5239    7.7069 C.ar    1  LIG1        0.0105
     29 C           0.4598    5.0778    7.7004 C.3     1  LIG1        0.0832
     30 C           1.9653    4.9555    7.7071 C.2     1  LIG1       -0.0080
     31 C           2.8438    4.7660    8.6715 C.2     1  LIG1       -0.0190
     32 H           2.5486    4.5671    9.5311 H       1  LIG1        0.0629
     33 C           4.3182    4.8686    8.3948 C.3     1  LIG1        0.1979
     34 C           4.6636    5.1086    6.9414 C.3     1  LIG1        0.0488
     35 H           5.5632    5.1891    6.7144 H       1  LIG1        0.0407
     36 C           3.7672    5.2120    5.9686 C.2     1  LIG1       -0.0518
     37 H           4.0359    5.3722    5.0928 H       1  LIG1        0.0596
     38 C           2.3552    5.0707    6.2950 C.2     1  LIG1        0.0523
     39 C           0.1448    4.7700    6.2059 C.3     1  LIG1        0.1968
     40 H          -0.1799    3.8512    6.0982 H       1  LIG1        0.0979
     41 C          -0.8030    6.7662    6.6286 C.ar    1  LIG1        0.1274
     42 C          -1.5704    7.9068    6.5432 C.ar    1  LIG1       -0.0193
     43 H          -2.0266    8.1318    5.7643 H       1  LIG1        0.0654
     44 C          -1.6286    8.7080    7.6858 C.ar    1  LIG1       -0.0550
     45 H          -2.2104    9.4326    7.7017 H       1  LIG1        0.0621
     46 C          -0.3092    4.2238    8.7485 C.3     1  LIG1       -0.0070
     47 H          -0.9109    3.6460    8.2531 H       1  LIG1        0.0301
     48 H           0.3436    3.6460    9.1731 H       1  LIG1        0.0301
     49 C          -3.9610    7.4301    9.8085 C.3     1  LIG1        0.0040
     50 H          -4.4880    6.8404    9.2644 H       1  LIG1        0.0429
     51 H          -3.8085    8.2518    9.3353 H       1  LIG1        0.0429
     52 H          -4.4288    7.6140   10.6265 H       1  LIG1        0.0429
     53 C           4.3442    7.2011    9.0770 C.3     1  LIG1        0.1462
     54 H           3.6165    7.1806    8.4344 H       1  LIG1        0.0651
     55 H           5.0209    7.8121    8.7467 H       1  LIG1        0.0651
     56 C           3.8388    7.6811   10.3791 C.3     1  LIG1        0.4129
     57 C           6.2949    3.5576    8.8476 C.3     1  LIG1        0.1462
     58 H           6.6878    4.3793    8.5113 H       1  LIG1        0.0651
     59 H           6.5508    2.8337    8.2555 H       1  LIG1        0.0651
     60 C           6.7860    3.2884   10.2121 C.3     1  LIG1        0.4129
@<TRIPOS>BOND
     1    37    36    1
     2    15    39    1
     3    15    38    1
     4     9    39    1
     5     9    41    1
     6    43    42    1
     7    36    38    2
     8    36    34    1
     9    40    39    1
    10    39    29    1
    11    38    30    1
    12    42    41   ar
    13    42    44   ar
    14    41    28   ar
    15    35    34    1
    16    34    33    1
    17    44    45    1
    18    44    25   ar
    19    29    28    1
    20    29    30    1
    21    29    46    1
    22    28    26   ar
    23    30    31    2
    24    47    46    1
    25    59    57    1
    26    33    31    1
    27    33    11    1
    28    33    10    1
    29    54    53    1
    30     7    16    2
    31    58    57    1
    32    31    32    1
    33    26    25   ar
    34    26    27    1
    35    55    53    1
    36    46    48    1
    37    46    17    1
    38    25    22    1
    39    57    11    1
    40    57    60    1
    41    53    10    1
    42    53    56    1
    43    50    49    1
    44    51    49    1
    45    16    17    1
    46    16    14   am
    47    49    14    1
    48    49    52    1
    49    17    18    1
    50    17    12    1
    51    14    20    1
    52    23    22    1
    53     5    60    1
    54    22    24    1
    55    22    20    1
    56    60     4    1
    57    60     6    1
    58     3    56    1
    59    56     1    1
    60    56     2    1
    61    12    13    1
    62    12    19   am
    63    20    19    1
    64    20    21    1
    65    19     8    2
