@<TRIPOS>MOLECULE
?
 56 60 0 0 0
SMALL
GASTEIGER

@<TRIPOS>ATOM
      1 C           5.5285    4.4095    3.2810 C.2     1  LIG1        0.1756
      2 C           5.6541    3.0167    3.7729 C.ar    1  LIG1        0.0182
      3 C           4.8719    2.4976    4.7816 C.ar    1  LIG1       -0.0512
      4 H           4.2003    3.0211    5.1568 H       1  LIG1        0.0624
      5 C           5.0668    1.2226    5.2418 C.ar    1  LIG1       -0.0611
      6 H           4.5267    0.8878    5.9201 H       1  LIG1        0.0618
      7 C           6.0274    0.4613    4.7215 C.ar    1  LIG1       -0.0617
      8 H           6.1543   -0.3992    5.0495 H       1  LIG1        0.0618
      9 C           6.8234    0.9172    3.7222 C.ar    1  LIG1       -0.0611
     10 H           7.4901    0.3719    3.3730 H       1  LIG1        0.0618
     11 C           6.6385    2.2140    3.2184 C.ar    1  LIG1       -0.0512
     12 H           7.1688    2.5303    2.5224 H       1  LIG1        0.0624
     13 C           3.5779    5.6201    2.2392 C.2     1  LIG1        0.2271
     14 C           4.2783    5.2286    3.5464 C.3     1  LIG1        0.1063
     15 H           3.6615    4.7138    4.1068 H       1  LIG1        0.0482
     16 C           4.5467    6.5984    4.2000 C.3     1  LIG1        0.0137
     17 H           5.3411    6.9911    3.7812 H       1  LIG1        0.0372
     18 C           3.3212    7.4004    3.7611 C.3     1  LIG1        0.0345
     19 H           2.5913    7.2735    4.4029 H       1  LIG1        0.0507
     20 C           3.4496    8.8659    3.4092 C.3     1  LIG1       -0.0186
     21 H           4.3277    9.0655    3.0485 H       1  LIG1        0.0296
     22 H           3.2869    9.4287    4.1823 H       1  LIG1        0.0296
     23 C           2.3427    9.0524    2.3321 C.3     1  LIG1        0.0381
     24 C           2.5419    7.7758    1.4864 C.3     1  LIG1        0.0287
     25 H           1.7137    7.5069    1.0571 H       1  LIG1        0.0476
     26 H           3.2222    7.9072    0.8081 H       1  LIG1        0.0476
     27 C           4.7641    6.5548    5.6771 C.2     1  LIG1       -0.0851
     28 H           4.0929    6.1676    6.1915 H       1  LIG1        0.0570
     29 C           5.7841    6.9998    6.2941 C.2     1  LIG1       -0.1023
     30 H           6.4790    7.3957    5.8198 H       1  LIG1        0.0532
     31 H           5.8345    6.9300    7.2202 H       1  LIG1        0.0532
     32 C           2.4998   10.2987    1.4656 C.ar    1  LIG1       -0.0353
     33 C           1.8250   10.3677    0.2518 C.ar    1  LIG1       -0.0577
     34 H           1.3035    9.6479   -0.0236 H       1  LIG1        0.0621
     35 C           1.9163   11.4856   -0.5498 C.ar    1  LIG1       -0.0615
     36 H           1.4705   11.5053   -1.3662 H       1  LIG1        0.0618
     37 C           2.6579   12.5665   -0.1522 C.ar    1  LIG1       -0.0617
     38 H           2.7124   13.3223   -0.6925 H       1  LIG1        0.0618
     39 C           3.3165   12.5261    1.0453 C.ar    1  LIG1       -0.0615
     40 H           3.8130   13.2612    1.3261 H       1  LIG1        0.0618
     41 C           3.2480   11.3983    1.8416 C.ar    1  LIG1       -0.0577
     42 H           3.7145   11.3788    2.6462 H       1  LIG1        0.0621
     43 C           0.9777    9.0955    3.0294 C.ar    1  LIG1       -0.0353
     44 C           0.0392    8.0806    2.9553 C.ar    1  LIG1       -0.0577
     45 H           0.2352    7.3106    2.4716 H       1  LIG1        0.0621
     46 C          -1.1919    8.1897    3.5924 C.ar    1  LIG1       -0.0615
     47 H          -1.8094    7.4971    3.5287 H       1  LIG1        0.0618
     48 C          -1.4973    9.3076    4.3097 C.ar    1  LIG1       -0.0617
     49 H          -2.3295    9.3916    4.7179 H       1  LIG1        0.0618
     50 C          -0.5686   10.3056    4.4253 C.ar    1  LIG1       -0.0615
     51 H          -0.7635   11.0603    4.9327 H       1  LIG1        0.0618
     52 C           0.6551   10.2020    3.7958 C.ar    1  LIG1       -0.0577
     53 H           1.2744   10.8890    3.8886 H       1  LIG1        0.0621
     54 N           2.9662    6.7924    2.4748 N.am    1  LIG1       -0.2960
     55 O           6.4219    4.9352    2.6462 O.2     1  LIG1       -0.2912
     56 O           3.5637    4.9964    1.1930 O.2     1  LIG1       -0.2748
@<TRIPOS>BOND
     1    36    35    1
     2    38    37    1
     3    35    37   ar
     4    35    33   ar
     5    37    39   ar
     6    34    33    1
     7    33    32   ar
     8    26    24    1
     9    39    40    1
    10    39    41   ar
    11    25    24    1
    12    56    13    2
    13    32    41   ar
    14    32    23    1
    15    24    23    1
    16    24    54    1
    17    41    42    1
    18    13    54   am
    19    13    14    1
    20    23    43    1
    21    23    20    1
    22    45    44    1
    23    54    18    1
    24    12    11    1
    25    55     1    2
    26    44    43   ar
    27    44    46   ar
    28    43    52   ar
    29    21    20    1
    30    11     9   ar
    31    11     2   ar
    32     1    14    1
    33     1     2    1
    34    10     9    1
    35    20    18    1
    36    20    22    1
    37    47    46    1
    38    14    15    1
    39    14    16    1
    40    46    48   ar
    41     9     7   ar
    42    18    16    1
    43    18    19    1
    44     2     3   ar
    45    17    16    1
    46    52    53    1
    47    52    50   ar
    48    16    27    1
    49    48    50   ar
    50    48    49    1
    51    50    51    1
    52     7     8    1
    53     7     5   ar
    54     3     4    1
    55     3     5   ar
    56     5     6    1
    57    27    28    1
    58    27    29    2
    59    30    29    1
    60    29    31    1
