@<TRIPOS>MOLECULE
?
 52 56 0 0 0
SMALL
GASTEIGER

@<TRIPOS>ATOM
      1 BR         -1.8082    3.0824   -0.4972 Br      1  LIG1       -0.0484
      2 S          -0.1972    5.3476    5.7261 S.O2    1  LIG1        0.0625
      3 O          -0.7071    4.3356    6.6064 O.2     1  LIG1       -0.1528
      4 O           0.2620    6.5937    6.2524 O.2     1  LIG1       -0.1528
      5 N           0.0535    3.1878    1.9339 N.pl3   1  LIG1       -0.3306
      6 H          -0.3583    3.8299    1.5385 H       1  LIG1        0.1471
      7 N           1.9462    2.4212    4.7776 N.pl3   1  LIG1       -0.3250
      8 H           1.9743    2.0620    5.5584 H       1  LIG1        0.1477
      9 N           1.0836    4.6752    4.9527 N.3     1  LIG1       -0.1539
     10 C          -1.2832    1.6419    0.6434 C.ar    1  LIG1        0.0387
     11 C          -1.7642    0.3756    0.3770 C.ar    1  LIG1       -0.0460
     12 H          -2.3297    0.2347   -0.3478 H       1  LIG1        0.0629
     13 C          -1.4053   -0.6816    1.1861 C.ar    1  LIG1       -0.0606
     14 H          -1.7254   -1.5361    1.0134 H       1  LIG1        0.0618
     15 C          -0.5638   -0.4507    2.2571 C.ar    1  LIG1       -0.0600
     16 H          -0.3280   -1.1588    2.8130 H       1  LIG1        0.0618
     17 C          -0.0689    0.8120    2.5174 C.ar    1  LIG1       -0.0398
     18 H           0.4993    0.9389    3.2421 H       1  LIG1        0.0636
     19 C          -0.4085    1.9036    1.7051 C.ar    1  LIG1        0.0420
     20 C           2.8814    2.1957    3.7719 C.ar    1  LIG1        0.0337
     21 C           4.0520    1.4615    3.8325 C.ar    1  LIG1       -0.0405
     22 H           4.3440    1.0964    4.6356 H       1  LIG1        0.0636
     23 C           4.7780    1.2865    2.6694 C.ar    1  LIG1       -0.0600
     24 H           5.5674    0.7963    2.6924 H       1  LIG1        0.0618
     25 C           4.3438    1.8335    1.4618 C.ar    1  LIG1       -0.0613
     26 H           4.8378    1.6936    0.6864 H       1  LIG1        0.0618
     27 C           3.1814    2.5829    1.4126 C.ar    1  LIG1       -0.0547
     28 H           2.8989    2.9653    0.6142 H       1  LIG1        0.0622
     29 C           2.4512    2.7513    2.5688 C.ar    1  LIG1       -0.0002
     30 C           1.1738    3.5420    2.7846 C.3     1  LIG1        0.0936
     31 C           0.9172    3.3417    4.3354 C.3     1  LIG1        0.1198
     32 H           0.0219    2.9801    4.5035 H       1  LIG1        0.0709
     33 C           1.8637    5.5131    4.0145 C.3     1  LIG1        0.0250
     34 H           2.8150    5.3690    4.1312 H       1  LIG1        0.0445
     35 H           1.6703    6.4534    4.1496 H       1  LIG1        0.0445
     36 C           1.4119    5.0614    2.6364 C.3     1  LIG1       -0.0098
     37 H           2.0959    5.2412    1.9731 H       1  LIG1        0.0303
     38 H           0.5949    5.5145    2.3746 H       1  LIG1        0.0303
     39 C          -1.4450    5.6803    4.5266 C.ar    1  LIG1        0.1056
     40 C          -2.3659    4.6963    4.2049 C.ar    1  LIG1       -0.0351
     41 H          -2.3804    3.8952    4.6793 H       1  LIG1        0.0637
     42 C          -3.2630    4.9081    3.1753 C.ar    1  LIG1       -0.0570
     43 H          -3.8789    4.2458    2.9596 H       1  LIG1        0.0621
     44 C          -3.2546    6.0972    2.4583 C.ar    1  LIG1       -0.0503
     45 C          -2.3504    7.0872    2.8199 C.ar    1  LIG1       -0.0570
     46 H          -2.3574    7.8974    2.3639 H       1  LIG1        0.0621
     47 C          -1.4407    6.8935    3.8417 C.ar    1  LIG1       -0.0351
     48 H          -0.8346    7.5617    4.0682 H       1  LIG1        0.0637
     49 C          -4.2183    6.3132    1.3105 C.3     1  LIG1       -0.0397
     50 H          -4.4398    5.4670    0.9151 H       1  LIG1        0.0278
     51 H          -3.8086    6.8783    0.6510 H       1  LIG1        0.0278
     52 H          -5.0172    6.7327    1.6383 H       1  LIG1        0.0278
@<TRIPOS>BOND
     1     1    10    1
     2    12    11    1
     3    11    10   ar
     4    11    13   ar
     5    28    27    1
     6    10    19   ar
     7    51    49    1
     8    26    25    1
     9    50    49    1
    10    14    13    1
    11    13    15   ar
    12    49    52    1
    13    49    44    1
    14    27    25   ar
    15    27    29   ar
    16    25    23   ar
    17     6     5    1
    18    19     5    1
    19    19    17   ar
    20     5    30    1
    21    37    36    1
    22    15    17   ar
    23    15    16    1
    24    46    45    1
    25    38    36    1
    26    44    45   ar
    27    44    42   ar
    28    17    18    1
    29    29    30    1
    30    29    20   ar
    31    36    30    1
    32    36    33    1
    33    23    24    1
    34    23    21   ar
    35    30    31    1
    36    45    47   ar
    37    43    42    1
    38    42    40   ar
    39    20    21   ar
    40    20     7    1
    41    21    22    1
    42    47    48    1
    43    47    39   ar
    44    33    34    1
    45    33    35    1
    46    33     9    1
    47    40    39   ar
    48    40    41    1
    49    31    32    1
    50    31     7    1
    51    31     9    1
    52    39     2    1
    53     7     8    1
    54     9     2    1
    55     2     4    2
    56     2     3    2
