@<TRIPOS>MOLECULE
?
 46 47 0 0 0
SMALL
GASTEIGER

@<TRIPOS>ATOM
      1 I           1.0479    5.3712    9.4590 I       1  LIG1       -0.0435
      2 C           3.6989    5.5370   18.2275 C.ar    1  LIG1       -0.0197
      3 H           4.4217    5.7386   18.7775 H       1  LIG1        0.0654
      4 O           2.9451    3.7373   19.6920 O.3     1  LIG1       -0.4951
      5 C           1.5421    4.9665   16.5897 C.ar    1  LIG1       -0.0550
      6 H           0.8105    4.7671   16.0519 H       1  LIG1        0.0621
      7 C           3.4842    6.2563   17.0410 C.ar    1  LIG1       -0.0550
      8 H           4.0720    6.9403   16.8161 H       1  LIG1        0.0621
      9 C           2.7930    7.0692   12.4817 C.3     1  LIG1       -0.0201
     10 H           1.8491    7.0163   12.2626 H       1  LIG1        0.0292
     11 H           2.9895    7.9900   12.7130 H       1  LIG1        0.0292
     12 C           4.1024    3.9597   20.5065 C.3     1  LIG1        0.0788
     13 H           4.8930    3.8716   19.9689 H       1  LIG1        0.0660
     14 H           4.1234    3.3132   21.2155 H       1  LIG1        0.0660
     15 H           4.0661    4.8431   20.8785 H       1  LIG1        0.0660
     16 C           3.0638    6.1825   13.7129 C.3     1  LIG1        0.1189
     17 C           2.8199    4.5237   18.5689 C.ar    1  LIG1        0.1201
     18 C           2.2468    6.7310   14.9032 C.3     1  LIG1        0.0009
     19 H           2.5006    7.6551   15.0523 H       1  LIG1        0.0336
     20 H           1.3070    6.7200   14.6629 H       1  LIG1        0.0336
     21 C           2.4187    5.9754   16.1916 C.ar    1  LIG1       -0.0449
     22 C           1.7257    4.2571   17.7582 C.ar    1  LIG1       -0.0197
     23 H           1.1164    3.5985   18.0017 H       1  LIG1        0.0654
     24 O           1.3211    4.6294   13.2277 O.3     1  LIG1       -0.4666
     25 O           3.4030    3.8287   13.2076 O.2     1  LIG1       -0.2488
     26 C           2.6585    4.7528   13.3765 C.2     1  LIG1        0.3273
     27 N           4.4954    6.2530   14.0494 N.3     1  LIG1       -0.3156
     28 C           0.8649    3.3077   12.8467 C.3     1  LIG1        0.0817
     29 H           1.2480    3.0687   11.9982 H       1  LIG1        0.0661
     30 H          -0.0924    3.3077   12.7770 H       1  LIG1        0.0661
     31 H           1.1369    2.6710   13.5122 H       1  LIG1        0.0661
     32 C           3.6024    6.6958   11.2392 C.3     1  LIG1       -0.0245
     33 H           4.5445    6.8434   11.4170 H       1  LIG1        0.0314
     34 H           3.4790    5.7518   11.0509 H       1  LIG1        0.0314
     35 C           3.1907    7.5042   10.0243 C.ar    1  LIG1       -0.0342
     36 C           3.8585    8.6938    9.7517 C.ar    1  LIG1       -0.0576
     37 H           4.5486    8.9626   10.3157 H       1  LIG1        0.0621
     38 C           1.8240    7.9349    8.0643 C.ar    1  LIG1       -0.0483
     39 H           1.1380    7.6662    7.4971 H       1  LIG1        0.0628
     40 C           2.1708    7.1551    9.1723 C.ar    1  LIG1        0.0165
     41 C           3.5258    9.4946    8.6597 C.ar    1  LIG1       -0.0614
     42 H           3.9866   10.2854    8.4996 H       1  LIG1        0.0618
     43 C           2.5076    9.1003    7.8231 C.ar    1  LIG1       -0.0608
     44 H           2.2807    9.6268    7.0902 H       1  LIG1        0.0618
     45 H           4.8772    5.9589   13.4831 H       1  LIG1        0.1192
     46 H           4.6842    5.7716   14.8198 H       1  LIG1        0.1192
@<TRIPOS>BOND
     1    44    43    1
     2    39    38    1
     3    43    38   ar
     4    43    41   ar
     5    38    40   ar
     6    42    41    1
     7    41    36   ar
     8    40     1    1
     9    40    35   ar
    10    36    35   ar
    11    36    37    1
    12    35    32    1
    13    34    32    1
    14    32    33    1
    15    32     9    1
    16    29    28    1
    17    10     9    1
    18     9    11    1
    19     9    16    1
    20    30    28    1
    21    28    24    1
    22    28    31    1
    23    25    26    2
    24    24    26    1
    25    26    16    1
    26    45    27    1
    27    16    27    1
    28    16    18    1
    29    27    46    1
    30    20    18    1
    31    18    19    1
    32    18    21    1
    33     6     5    1
    34    21     5   ar
    35    21     7   ar
    36     5    22   ar
    37     8     7    1
    38     7     2   ar
    39    22    23    1
    40    22    17   ar
    41     2    17   ar
    42     2     3    1
    43    17     4    1
    44     4    12    1
    45    13    12    1
    46    12    15    1
    47    12    14    1
