@<TRIPOS>MOLECULE
?
 42 48 0 0 0
SMALL
GASTEIGER

@<TRIPOS>ATOM
      1 S           2.1250    2.2023    3.4028 S.2     1  LIG1       -0.0955
      2 S          -4.4223    2.0919    1.7695 S.2     2  LIG2       -0.0871
      3 S           0.9906    3.6546    7.2566 S.2     1  LIG1       -0.0871
      4 S          -6.9709   -1.1188    2.9620 S.2     2  LIG2       -0.0955
      5 S          -1.4822    6.9369    6.1104 S.2     1  LIG1       -0.0955
      6 S          -3.1954    3.5032    5.6084 S.2     2  LIG2       -0.0955
      7 C          -4.9368    1.9244    6.9877 C.ar    2  LIG2       -0.0474
      8 H          -4.6844    2.5227    7.6536 H       2  LIG2        0.0629
      9 C          -4.6579    1.7997    4.4123 C.ar    2  LIG2        0.0122
     10 C           0.0092    4.9750    6.6332 C.ar    1  LIG1        0.0281
     11 C          -0.8869    6.1336    2.1938 C.ar    1  LIG1       -0.0607
     12 H          -1.3086    6.6488    1.5436 H       1  LIG1        0.0618
     13 C          -5.5133    0.7802    3.8242 C.ar    2  LIG2        0.0122
     14 C          -0.0577    5.0834    1.5950 C.ar    1  LIG1       -0.0607
     15 H          -0.0802    5.1275    0.6657 H       1  LIG1        0.0618
     16 C          -3.1293    3.4894    3.9051 C.ar    2  LIG2       -0.0094
     17 H          -2.5945    4.0477    3.3871 H       2  LIG2        0.0705
     18 C          -0.0439    5.0366    5.2112 C.ar    1  LIG1        0.0122
     19 C          -6.2933   -0.2485    4.2979 C.ar    2  LIG2        0.0210
     20 C          -5.7544    0.9454    7.4228 C.ar    2  LIG2       -0.0607
     21 H          -5.9917    1.0641    8.3147 H       2  LIG2        0.0618
     22 C          -4.3752    2.2295    5.6904 C.ar    2  LIG2        0.0210
     23 C           1.0760    3.5825    3.3371 C.ar    1  LIG1        0.0210
     24 C          -6.5978   -0.7502    5.6272 C.ar    2  LIG2       -0.0474
     25 H          -7.0381   -1.5684    5.6287 H       2  LIG2        0.0629
     26 C          -6.2249   -0.1323    1.7887 C.ar    2  LIG2       -0.0094
     27 H          -6.3151   -0.2341    0.8687 H       2  LIG2        0.0705
     28 C          -0.7198    5.9396    7.2672 C.ar    1  LIG1       -0.0094
     29 H          -0.7905    6.0383    8.1886 H       1  LIG1        0.0705
     30 C          -0.8309    6.0751    4.7554 C.ar    1  LIG1        0.0210
     31 C          -1.2002    6.5507    3.4337 C.ar    1  LIG1       -0.0474
     32 H          -1.7647    7.2894    3.4470 H       1  LIG1        0.0629
     33 C           2.1287    2.1479    5.1086 C.ar    1  LIG1       -0.0094
     34 H           2.5908    1.5250    5.6226 H       1  LIG1        0.0705
     35 C          -6.3635   -0.2567    6.8543 C.ar    2  LIG2       -0.0607
     36 H          -6.6696   -0.8313    7.5183 H       2  LIG2        0.0618
     37 C          -5.4743    0.8306    2.4049 C.ar    2  LIG2        0.0281
     38 C           0.7513    3.9741    4.6103 C.ar    1  LIG1        0.0122
     39 C           1.3540    3.1543    5.6052 C.ar    1  LIG1        0.0281
     40 C          -3.9760    2.5373    3.4140 C.ar    2  LIG2        0.0281
     41 C           0.7259    4.0748    2.0133 C.ar    1  LIG1       -0.0474
     42 H           1.1214    3.5977    1.3207 H       1  LIG1        0.0629
@<TRIPOS>BOND
     1    15    14    1
     2    27    26    1
     3    42    41    1
     4    12    11    1
     5    14    41   ar
     6    14    11   ar
     7     2    37   ar
     8     2    40   ar
     9    26    37   ar
    10    26     4   ar
    11    41    23   ar
    12    11    31   ar
    13    37    13   ar
    14     4    19   ar
    15    23     1   ar
    16    23    38   ar
    17    17    16    1
    18     1    33   ar
    19    40    16   ar
    20    40     9   ar
    21    31    32    1
    22    31    30   ar
    23    13    19   ar
    24    13     9   ar
    25    16     6   ar
    26    19    24   ar
    27     9    22   ar
    28    38    18   ar
    29    38    39   ar
    30    30    18   ar
    31    30     5   ar
    32    33    39   ar
    33    33    34    1
    34    18    10   ar
    35    39     3   ar
    36     6    22   ar
    37    24    25    1
    38    24    35   ar
    39    22     7   ar
    40     5    28   ar
    41    10     3   ar
    42    10    28   ar
    43    35    20   ar
    44    35    36    1
    45     7    20   ar
    46     7     8    1
    47    28    29    1
    48    20    21    1
