@<TRIPOS>MOLECULE
?
 39 42 0 0 0
SMALL
GASTEIGER

@<TRIPOS>ATOM
      1 P           0.4976   19.5461    2.8388 P.3     1  LIG1        0.1800
      2 O           1.3454   19.3775    1.6342 O.2     1  LIG1       -0.3058
      3 C           1.1400   18.8720    4.4113 C.2     1  LIG1        0.0706
      4 C           1.2352   19.8558    5.3307 C.2     1  LIG1       -0.0345
      5 H           1.5523   19.6982    6.2128 H       1  LIG1        0.0637
      6 C           0.8142   21.1850    4.8721 C.ar    1  LIG1       -0.0127
      7 C           0.3523   21.2008    3.5437 C.ar    1  LIG1        0.0276
      8 C          -0.1000   22.3741    2.9688 C.ar    1  LIG1       -0.0501
      9 H          -0.4290   22.3774    2.0772 H       1  LIG1        0.0625
     10 C          -0.0663   23.5549    3.7180 C.ar    1  LIG1       -0.0610
     11 H          -0.3673   24.3687    3.3305 H       1  LIG1        0.0618
     12 C           0.4028   23.5466    5.0224 C.ar    1  LIG1       -0.0612
     13 H           0.4293   24.3559    5.5189 H       1  LIG1        0.0618
     14 C           0.8366   22.3587    5.6119 C.ar    1  LIG1       -0.0538
     15 H           1.1442   22.3538    6.5112 H       1  LIG1        0.0624
     16 C           1.4803   17.5020    4.5630 C.1     1  LIG1       -0.0569
     17 C           1.7876   16.3416    4.6081 C.1     1  LIG1       -0.0609
     18 C           2.1884   14.9614    4.6278 C.ar    1  LIG1        0.0253
     19 C           1.7867   14.1021    5.6534 C.ar    1  LIG1       -0.0463
     20 H           1.2604   14.4306    6.3720 H       1  LIG1        0.0630
     21 C           2.1580   12.7683    5.6186 C.ar    1  LIG1       -0.0606
     22 H           1.8798   12.1852    6.3146 H       1  LIG1        0.0618
     23 C           2.9287   12.2784    4.5838 C.ar    1  LIG1       -0.0617
     24 H           3.1794   11.3611    4.5710 H       1  LIG1        0.0618
     25 C           3.3384   13.1206    3.5634 C.ar    1  LIG1       -0.0606
     26 H           3.8683   12.7824    2.8507 H       1  LIG1        0.0618
     27 C           2.9725   14.4573    3.5837 C.ar    1  LIG1       -0.0463
     28 H           3.2556   15.0351    2.8846 H       1  LIG1        0.0630
     29 C          -1.1533   18.8660    2.6367 C.ar    1  LIG1        0.0205
     30 C          -1.4823   18.2125    1.4540 C.ar    1  LIG1       -0.0507
     31 H          -0.8335   18.1154    0.7665 H       1  LIG1        0.0625
     32 C          -2.7668   17.6999    1.2790 C.ar    1  LIG1       -0.0611
     33 H          -2.9922   17.2477    0.4739 H       1  LIG1        0.0618
     34 C          -3.7128   17.8495    2.2755 C.ar    1  LIG1       -0.0617
     35 H          -4.5920   17.5109    2.1497 H       1  LIG1        0.0618
     36 C          -3.3806   18.4939    3.4620 C.ar    1  LIG1       -0.0611
     37 H          -4.0308   18.5873    4.1485 H       1  LIG1        0.0618
     38 C          -2.1042   18.9987    3.6452 C.ar    1  LIG1       -0.0507
     39 H          -1.8780   19.4350    4.4586 H       1  LIG1        0.0625
@<TRIPOS>BOND
     1    33    32    1
     2    31    30    1
     3    32    30   ar
     4    32    34   ar
     5    30    29   ar
     6     2     1    2
     7     9     8    1
     8    35    34    1
     9    34    36   ar
    10    29     1    1
    11    29    38   ar
    12     1     7    1
    13     1     3    1
    14    26    25    1
    15    28    27    1
    16     8     7   ar
    17     8    10   ar
    18    11    10    1
    19    36    38   ar
    20    36    37    1
    21     7     6   ar
    22    25    27   ar
    23    25    23   ar
    24    27    18   ar
    25    38    39    1
    26    10    12   ar
    27     3    16    1
    28     3     4    2
    29    16    17    3
    30    24    23    1
    31    23    21   ar
    32    17    18    1
    33    18    19   ar
    34     6     4    1
    35     6    14   ar
    36    12    13    1
    37    12    14   ar
    38     4     5    1
    39    14    15    1
    40    21    19   ar
    41    21    22    1
    42    19    20    1
