@<TRIPOS>MOLECULE
?
 48 50 0 0 0
SMALL
GASTEIGER

@<TRIPOS>ATOM
      1 N           2.5782    3.1995    5.5584 N.pl3   1  LIG1       -0.1972
      2 N           3.1435    2.6936    4.4324 N.2     1  LIG1       -0.1718
      3 O           2.5346    2.2283    1.0544 O.2     1  LIG1       -0.2435
      4 O           4.3710    1.8374    2.2635 O.3     1  LIG1       -0.4606
      5 O           5.2190    2.1349   10.3273 O.3     1  LIG1       -0.4951
      6 C           1.5085    4.1111    5.4822 C.2     1  LIG1        0.0285
      7 C           0.8226    4.2037    4.3606 C.2     1  LIG1       -0.0517
      8 H           0.1733    4.8665    4.2851 H       1  LIG1        0.0598
      9 C           1.0503    3.2780    3.1996 C.3     1  LIG1        0.0546
     10 H           0.9846    3.7995    2.3722 H       1  LIG1        0.0459
     11 C           2.4768    2.7755    3.3337 C.2     1  LIG1        0.1544
     12 C           3.1193    2.2597    2.1029 C.2     1  LIG1        0.3560
     13 C           4.9962    1.2323    1.0828 C.3     1  LIG1        0.0900
     14 H           4.4336    0.5191    0.7432 H       1  LIG1        0.0695
     15 H           5.0958    1.8993    0.3855 H       1  LIG1        0.0695
     16 C           6.2913    0.7034    1.4417 C.3     1  LIG1       -0.0306
     17 H           6.8615    1.4208    1.7256 H       1  LIG1        0.0262
     18 H           6.6814    0.2670    0.6803 H       1  LIG1        0.0262
     19 H           6.1917    0.0711    2.1571 H       1  LIG1        0.0262
     20 C           3.3040    2.9532    6.7603 C.ar    1  LIG1        0.0570
     21 C           2.7233    2.1911    7.7499 C.ar    1  LIG1       -0.0350
     22 H           1.8711    1.8423    7.6216 H       1  LIG1        0.0638
     23 C           3.3885    1.9407    8.9209 C.ar    1  LIG1       -0.0181
     24 H           2.9836    1.4257    9.5817 H       1  LIG1        0.0655
     25 C           4.6419    2.4440    9.1233 C.ar    1  LIG1        0.1202
     26 C           5.2343    3.1937    8.1337 C.ar    1  LIG1       -0.0181
     27 H           6.0911    3.5325    8.2560 H       1  LIG1        0.0655
     28 C           4.5581    3.4416    6.9646 C.ar    1  LIG1       -0.0350
     29 H           4.9630    3.9516    6.3008 H       1  LIG1        0.0638
     30 C           6.4848    2.6961   10.6173 C.3     1  LIG1        0.0788
     31 H           7.1373    2.3457   10.0070 H       1  LIG1        0.0660
     32 H           6.7348    2.4713   11.5164 H       1  LIG1        0.0660
     33 H           6.4411    3.6499   10.5267 H       1  LIG1        0.0660
     34 C           0.0406    2.1448    3.1320 C.ar    1  LIG1       -0.0344
     35 C          -0.6760    1.8663    1.9787 C.ar    1  LIG1       -0.0576
     36 H          -0.5365    2.3837    1.2181 H       1  LIG1        0.0621
     37 C          -1.5954    0.8348    1.9371 C.ar    1  LIG1       -0.0615
     38 H          -2.0680    0.6695    1.1541 H       1  LIG1        0.0618
     39 C          -1.8103    0.0669    3.0247 C.ar    1  LIG1       -0.0617
     40 H          -2.4272   -0.6282    2.9921 H       1  LIG1        0.0618
     41 C          -1.1151    0.3157    4.1800 C.ar    1  LIG1       -0.0615
     42 H          -1.2555   -0.2182    4.9280 H       1  LIG1        0.0618
     43 C          -0.2107    1.3514    4.2370 C.ar    1  LIG1       -0.0576
     44 H           0.2389    1.5208    5.0331 H       1  LIG1        0.0621
     45 C           1.2782    4.9641    6.6911 C.3     1  LIG1       -0.0247
     46 H           0.6452    5.6542    6.4796 H       1  LIG1        0.0290
     47 H           2.1074    5.3625    6.9642 H       1  LIG1        0.0290
     48 H           0.9343    4.4211    7.4041 H       1  LIG1        0.0290
@<TRIPOS>BOND
     1    15    13    1
     2    18    16    1
     3    14    13    1
     4     3    12    2
     5    13    16    1
     6    13     4    1
     7    38    37    1
     8    36    35    1
     9    16    17    1
    10    16    19    1
    11    37    35   ar
    12    37    39   ar
    13    35    34   ar
    14    12     4    1
    15    12    11    1
    16    10     9    1
    17    40    39    1
    18    39    41   ar
    19    34     9    1
    20    34    43   ar
    21     9    11    1
    22     9     7    1
    23    11     2    2
    24    41    43   ar
    25    41    42    1
    26    43    44    1
    27     8     7    1
    28     7     6    2
    29     2     1    1
    30     6     1    1
    31     6    45    1
    32     1    20    1
    33    29    28    1
    34    46    45    1
    35    45    47    1
    36    45    48    1
    37    20    28   ar
    38    20    21   ar
    39    28    26   ar
    40    22    21    1
    41    21    23   ar
    42    26    27    1
    43    26    25   ar
    44    23    25   ar
    45    23    24    1
    46    25     5    1
    47    31    30    1
    48     5    30    1
    49    33    30    1
    50    30    32    1
