@<TRIPOS>MOLECULE
?
 37 39 0 0 0
SMALL
GASTEIGER

@<TRIPOS>ATOM
      1 O           3.1011    5.4367    6.9402 O.3     1  LIG1        0.0240
      2 O           1.2600    1.5143    8.8362 O.2     1  LIG1       -0.2417
      3 O           0.3883    5.5661    8.5577 O.3     1  LIG1       -0.4552
      4 N           3.6359    4.2563    6.7329 N.4     1  LIG1       -0.0521
      5 N           1.9149    3.5147    8.0069 N.am    1  LIG1       -0.1675
      6 C           4.7609    4.1221    5.9930 C.2     1  LIG1        0.1277
      7 H           5.1657    4.8751    5.6259 H       1  LIG1        0.1111
      8 C           5.3084    2.8825    5.7818 C.2     1  LIG1       -0.0339
      9 H           6.0823    2.7961    5.2737 H       1  LIG1        0.0615
     10 C           4.7107    1.7673    6.3223 C.3     1  LIG1        0.0167
     11 H           5.0780    0.9253    6.1755 H       1  LIG1        0.0398
     12 C           3.5694    1.8989    7.0797 C.2     1  LIG1        0.0139
     13 H           3.1635    1.1474    7.4463 H       1  LIG1        0.0658
     14 C           3.0298    3.1544    7.2927 C.2     1  LIG1        0.3068
     15 C           1.0909    2.7211    8.7528 C.2     1  LIG1        0.3363
     16 C          -0.0393    3.4089    9.4602 C.ar    1  LIG1        0.1037
     17 C          -0.8316    2.5971   10.2764 C.ar    1  LIG1       -0.0438
     18 H          -0.6277    1.6926   10.3467 H       1  LIG1        0.0627
     19 C          -1.9037    3.0950   10.9791 C.ar    1  LIG1       -0.0607
     20 H          -2.4134    2.5318   11.5154 H       1  LIG1        0.0618
     21 C          -2.2178    4.4315   10.8832 C.ar    1  LIG1       -0.0582
     22 H          -2.9441    4.7721   11.3539 H       1  LIG1        0.0619
     23 C          -1.4580    5.2692   10.0902 C.ar    1  LIG1       -0.0185
     24 H          -1.6715    6.1719   10.0304 H       1  LIG1        0.0654
     25 C          -0.3793    4.7652    9.3856 C.ar    1  LIG1        0.1428
     26 C           0.3072    6.9665    8.6074 C.ar    1  LIG1        0.1285
     27 C          -0.6991    7.6225    7.9485 C.ar    1  LIG1       -0.0193
     28 H          -1.3747    7.1500    7.5181 H       1  LIG1        0.0654
     29 C          -0.6855    9.0040    7.9399 C.ar    1  LIG1       -0.0583
     30 H          -1.3680    9.4643    7.5068 H       1  LIG1        0.0619
     31 C           0.3148    9.7089    8.5573 C.ar    1  LIG1       -0.0615
     32 H           0.3084   10.6393    8.5421 H       1  LIG1        0.0618
     33 C           1.3194    9.0434    9.1940 C.ar    1  LIG1       -0.0583
     34 H           2.0056    9.5190    9.6031 H       1  LIG1        0.0619
     35 C           1.3194    7.6566    9.2317 C.ar    1  LIG1       -0.0193
     36 H           1.9964    7.1985    9.6749 H       1  LIG1        0.0654
     37 H           1.7462    4.3880    7.9667 H       1  LIG1        0.3016
@<TRIPOS>BOND
     1     9     8    1
     2     7     6    1
     3     8     6    2
     4     8    10    1
     5     6     4    1
     6    11    10    1
     7    10    12    1
     8     4     1    1
     9     4    14    1
    10    12    14    2
    11    12    13    1
    12    14     5    1
    13    30    29    1
    14    28    27    1
    15    29    27   ar
    16    29    31   ar
    17    27    26   ar
    18    37     5    1
    19     5    15   am
    20    32    31    1
    21    31    33   ar
    22     3    26    1
    23     3    25    1
    24    26    35   ar
    25    15     2    2
    26    15    16    1
    27    33    35   ar
    28    33    34    1
    29    35    36    1
    30    25    16   ar
    31    25    23   ar
    32    16    17   ar
    33    24    23    1
    34    23    21   ar
    35    17    18    1
    36    17    19   ar
    37    21    19   ar
    38    21    22    1
    39    19    20    1
