@<TRIPOS>MOLECULE
C20 H19 N O3
 43 46 0 0 0
SMALL
GASTEIGER

@<TRIPOS>ATOM
      1 O          -2.6042    2.5772   11.8325 O.3     1  LIG1       -0.4520
      2 O          -4.6431    1.8566   12.1928 O.2     1  LIG1       -0.2449
      3 O          -2.2462    0.6440    9.7118 O.2     1  LIG1       -0.2748
      4 N          -0.4111    1.2712    8.5937 N.am    1  LIG1       -0.3009
      5 C           1.1292   -0.0000    7.3866 C.3     1  LIG1       -0.0357
      6 H           0.8126    0.0089    6.4701 H       1  LIG1        0.0281
      7 H           1.7582   -0.7305    7.4963 H       1  LIG1        0.0281
      8 C          -0.0198   -0.1242    8.3564 C.3     1  LIG1        0.0147
      9 H          -0.7498   -0.6321    7.9694 H       1  LIG1        0.0464
     10 H           0.2627   -0.5526    9.1795 H       1  LIG1        0.0464
     11 C          -1.5201    1.5356    9.2699 C.2     1  LIG1        0.2269
     12 C          -1.8880    3.0135    9.5354 C.3     1  LIG1        0.1026
     13 H          -1.3153    3.5939    8.9911 H       1  LIG1        0.0483
     14 C          -1.7018    3.3594   11.0139 C.3     1  LIG1        0.1434
     15 H          -1.9118    4.3086   11.1414 H       1  LIG1        0.0796
     16 C          -0.3073    3.1139   11.4914 C.ar    1  LIG1       -0.0062
     17 C           0.1166    1.8745   11.9407 C.ar    1  LIG1       -0.0550
     18 H          -0.4961    1.1778   12.0075 H       1  LIG1        0.0621
     19 C           1.4259    1.6588   12.2892 C.ar    1  LIG1       -0.0614
     20 H           1.6987    0.8220   12.5888 H       1  LIG1        0.0618
     21 C           2.3309    2.6855   12.1928 C.ar    1  LIG1       -0.0617
     22 H           3.2189    2.5484   12.4331 H       1  LIG1        0.0618
     23 C           0.6151    4.1306   11.4083 C.ar    1  LIG1       -0.0550
     24 H           0.3484    4.9755   11.1236 H       1  LIG1        0.0621
     25 C           1.9227    3.9080   11.7420 C.ar    1  LIG1       -0.0614
     26 H           2.5425    4.5978   11.6604 H       1  LIG1        0.0618
     27 C          -3.8846    2.4261   11.4484 C.2     1  LIG1        0.3401
     28 C          -4.2776    2.9429   10.1152 C.ar    1  LIG1        0.0630
     29 C          -3.3096    3.2471    9.1765 C.ar    1  LIG1       -0.0177
     30 C          -3.7023    3.7003    7.9368 C.ar    1  LIG1       -0.0569
     31 H          -3.0586    3.8951    7.2946 H       1  LIG1        0.0621
     32 C          -5.0470    3.8712    7.6327 C.ar    1  LIG1       -0.0614
     33 H          -5.2988    4.2121    6.8053 H       1  LIG1        0.0618
     34 C          -5.9956    3.5353    8.5551 C.ar    1  LIG1       -0.0610
     35 H          -6.8966    3.6168    8.3401 H       1  LIG1        0.0618
     36 C          -5.6320    3.0791    9.7890 C.ar    1  LIG1       -0.0475
     37 H          -6.2857    2.8604   10.4148 H       1  LIG1        0.0626
     38 C           1.7674    1.3278    7.7558 C.3     1  LIG1       -0.0357
     39 H           2.3328    1.2414    8.5388 H       1  LIG1        0.0281
     40 H           2.2927    1.6817    7.0203 H       1  LIG1        0.0281
     41 C           0.5646    2.2025    8.0406 C.3     1  LIG1        0.0147
     42 H           0.7835    2.8982    8.6797 H       1  LIG1        0.0464
     43 H           0.2318    2.6130    7.2264 H       1  LIG1        0.0464
@<TRIPOS>BOND
     1     6     5    1
     2    33    32    1
     3    40    38    1
     4    43    41    1
     5    31    30    1
     6     5     7    1
     7     5    38    1
     8     5     8    1
     9    32    30   ar
    10    32    34   ar
    11    38    41    1
    12    38    39    1
    13    30    29   ar
    14     9     8    1
    15    41     4    1
    16    41    42    1
    17    35    34    1
    18     8     4    1
    19     8    10    1
    20    34    36   ar
    21     4    11   am
    22    13    12    1
    23    29    12    1
    24    29    28   ar
    25    11    12    1
    26    11     3    2
    27    12    14    1
    28    36    28   ar
    29    36    37    1
    30    28    27    1
    31    14    15    1
    32    14    16    1
    33    14     1    1
    34    24    23    1
    35    23    16   ar
    36    23    25   ar
    37    27     1    1
    38    27     2    2
    39    16    17   ar
    40    26    25    1
    41    25    21   ar
    42    17    18    1
    43    17    19   ar
    44    21    19   ar
    45    21    22    1
    46    19    20    1
