@<TRIPOS>MOLECULE
?
 23 23 0 0 0
SMALL
GASTEIGER

@<TRIPOS>ATOM
      1 C           8.1922    3.9313   12.4076 C.ar    1  LIG1        0.0761
      2 C           9.1024    3.7920   11.3524 C.ar    1  LIG1        0.0363
      3 C          10.3250    4.4786   11.4581 C.ar    1  LIG1       -0.0397
      4 H          10.9481    4.4020   10.7719 H       1  LIG1        0.0636
      5 C          10.6226    5.2565   12.5455 C.ar    1  LIG1       -0.0460
      6 H          11.4403    5.6972   12.5849 H       1  LIG1        0.0626
      7 C           9.7118    5.3954   13.5941 C.ar    1  LIG1        0.0596
      8 C           8.5006    4.7201   13.5085 C.ar    1  LIG1       -0.0343
      9 H           7.8842    4.7978   14.2015 H       1  LIG1        0.0632
     10 C           9.9895    6.1979   14.8063 C.2     1  LIG1        0.3389
     11 C          11.5255    7.6456   15.8672 C.3     1  LIG1        0.0820
     12 H          11.0832    8.4958   15.8124 H       1  LIG1        0.0661
     13 H          12.4766    7.7781   15.8646 H       1  LIG1        0.0661
     14 H          11.2674    7.2015   16.6786 H       1  LIG1        0.0661
     15 C           6.9019    3.1868   12.3900 C.3     1  LIG1        0.4191
     16 F           6.1749    3.4091   11.2847 F       1  LIG1       -0.1658
     17 F           7.0916    1.8522   12.4170 F       1  LIG1       -0.1658
     18 F           6.1142    3.4723   13.4260 F       1  LIG1       -0.1658
     19 N           8.8536    3.0414   10.2320 N.pl3   1  LIG1       -0.3575
     20 H           9.5355    2.8056    9.6245 H       1  LIG1        0.1423
     21 H           8.1166    2.4639   10.1883 H       1  LIG1        0.1423
     22 O          11.1512    6.8371   14.7386 O.3     1  LIG1       -0.4645
     23 O           9.2552    6.2707   15.7581 O.2     1  LIG1       -0.2450
@<TRIPOS>BOND
     1    20    19    1
     2    21    19    1
     3    19     2    1
     4     4     3    1
     5    16    15    1
     6     2     3   ar
     7     2     1   ar
     8     3     5   ar
     9    15     1    1
    10    15    17    1
    11    15    18    1
    12     1     8   ar
    13     5     6    1
    14     5     7   ar
    15     8     7   ar
    16     8     9    1
    17     7    10    1
    18    22    10    1
    19    22    11    1
    20    10    23    2
    21    12    11    1
    22    13    11    1
    23    11    14    1
