@<TRIPOS>MOLECULE
2,3,5-trichlorosalicylic acid
 16 16 0 0 0
SMALL
GASTEIGER

@<TRIPOS>ATOM
      1 CL          2.7509   -3.9467   -2.0189 Cl      1  LIG1       -0.0811
      2 CL          7.0113   -2.4981    2.2991 Cl      1  LIG1       -0.0797
      3 CL          3.1924   -5.7501    0.4534 Cl      1  LIG1       -0.0820
      4 O           3.3990   -1.3242   -2.7428 O.3     1  LIG1       -0.4770
      5 H           3.4684   -0.8023   -3.4074 H       1  LIG1        0.2954
      6 O           5.3415   -0.3709   -2.2190 O.2     1  LIG1       -0.2449
      7 O           6.4447   -0.8998    0.0049 O.3     1  LIG1       -0.5044
      8 H           6.3078   -0.6005   -0.6808 H       1  LIG1        0.2922
      9 C           4.6535   -2.2543   -0.9465 C.ar    1  LIG1        0.1212
     10 C           3.9049   -3.4536   -0.8357 C.ar    1  LIG1        0.0768
     11 C           4.1183   -4.3053    0.2384 C.ar    1  LIG1        0.0617
     12 C           5.0673   -4.0121    1.2136 C.ar    1  LIG1       -0.0200
     13 H           5.1971   -4.5902    1.9302 H       1  LIG1        0.0648
     14 C           5.8104   -2.8593    1.1092 C.ar    1  LIG1        0.0846
     15 C           5.6432   -1.9797    0.0294 C.ar    1  LIG1        0.1506
     16 C           4.4895   -1.2466   -2.0304 C.2     1  LIG1        0.3419
@<TRIPOS>BOND
     1     5     4    1
     2     4    16    1
     3     6    16    2
     4    16     9    1
     5     1    10    1
     6     9    10   ar
     7     9    15   ar
     8    10    11   ar
     9     8     7    1
    10     7    15    1
    11    15    14   ar
    12    11     3    1
    13    11    12   ar
    14    14    12   ar
    15    14     2    1
    16    12    13    1
