@<TRIPOS>MOLECULE
?
 88 92 0 0 0
SMALL
GASTEIGER

@<TRIPOS>ATOM
      1 CL          4.9979    5.8858    0.3294 Cl      1  LIG1       -0.1241
      2 CL         -0.7634   -1.2668   12.1804 Cl      2  LIG2       -0.1241
      3 N           5.8115    5.5321    4.9413 N.2     1  LIG1       -0.1904
      4 N           5.3709    5.3078    6.2259 N.pl3   1  LIG1       -0.2356
      5 N           4.2276    5.1052    8.9135 N.pl3   1  LIG1        0.0584
      6 N           5.9260    9.5347    9.8363 N.pl3   1  LIG1        0.0565
      7 N           0.9721    0.2894   10.0666 N.2     2  LIG2       -0.1904
      8 N           1.4537    0.5159    8.7938 N.pl3   2  LIG2       -0.2356
      9 N           2.6594    0.7177    6.1242 N.pl3   2  LIG2        0.0584
     10 N           0.8914   -3.6669    5.1221 N.pl3   2  LIG2        0.0565
     11 O           4.0778    4.1328    8.1748 O.2     1  LIG1       -0.1261
     12 O           3.7776    5.1262   10.0353 O.2     1  LIG1       -0.1261
     13 O           5.3023    9.5209   10.8763 O.2     1  LIG1       -0.1261
     14 O           6.6962   10.4355    9.5245 O.2     1  LIG1       -0.1261
     15 O           2.7672    1.6967    6.8617 O.2     2  LIG2       -0.1261
     16 O           3.1799    0.6591    5.0266 O.2     2  LIG2       -0.1261
     17 O           1.5611   -3.6661    4.1008 O.2     2  LIG2       -0.1261
     18 O           0.0991   -4.5517    5.3962 O.2     2  LIG2       -0.1261
     19 C           6.0071    4.7572    2.6398 C.3     1  LIG1        0.0487
     20 C           5.9092    3.3073    2.1359 C.3     1  LIG1       -0.0367
     21 H           5.6837    3.2870    1.1934 H       1  LIG1        0.0278
     22 H           6.7504    2.8420    2.2645 H       1  LIG1        0.0278
     23 C           4.8091    2.6669    2.9638 C.3     1  LIG1       -0.0467
     24 H           4.8993    1.7010    2.9716 H       1  LIG1        0.0269
     25 H           3.9341    2.8977    2.6135 H       1  LIG1        0.0269
     26 C           5.0045    3.2407    4.3598 C.3     1  LIG1       -0.0119
     27 H           4.1542    3.3347    4.8183 H       1  LIG1        0.0326
     28 H           5.5875    2.6749    4.8899 H       1  LIG1        0.0326
     29 C           5.6341    4.5836    4.1151 C.2     1  LIG1        0.0483
     30 C           4.8584    5.6088    2.0831 C.3     1  LIG1        0.0374
     31 H           4.8489    6.4655    2.5389 H       1  LIG1        0.0442
     32 H           4.0163    5.1646    2.2675 H       1  LIG1        0.0442
     33 C           7.3363    5.4525    2.3638 C.ar    1  LIG1       -0.0345
     34 C           7.6041    6.7078    2.8758 C.ar    1  LIG1       -0.0576
     35 H           6.9809    7.1174    3.4310 H       1  LIG1        0.0621
     36 C           8.7815    7.3663    2.5762 C.ar    1  LIG1       -0.0615
     37 H           8.9471    8.2084    2.9328 H       1  LIG1        0.0618
     38 C           9.7084    6.7766    1.7507 C.ar    1  LIG1       -0.0617
     39 H          10.5045    7.2121    1.5484 H       1  LIG1        0.0618
     40 C           9.4463    5.5509    1.2381 C.ar    1  LIG1       -0.0615
     41 H          10.0687    5.1515    0.6743 H       1  LIG1        0.0618
     42 C           8.2755    4.8802    1.5347 C.ar    1  LIG1       -0.0576
     43 H           8.1206    4.0380    1.1725 H       1  LIG1        0.0621
     44 C           5.4947    6.3063    7.1267 C.ar    1  LIG1        0.0785
     45 C           4.9687    6.2455    8.4260 C.ar    1  LIG1        0.1507
     46 C           5.1049    7.3055    9.3186 C.ar    1  LIG1        0.0006
     47 H           4.7444    7.2534   10.1737 H       1  LIG1        0.0664
     48 C           5.7793    8.4233    8.9111 C.ar    1  LIG1        0.1285
     49 C           6.3200    8.5123    7.6428 C.ar    1  LIG1       -0.0296
     50 H           6.7756    9.2814    7.3871 H       1  LIG1        0.0641
     51 C           6.1903    7.4856    6.7728 C.ar    1  LIG1       -0.0348
     52 H           6.5656    7.5565    5.9252 H       1  LIG1        0.0638
     53 C           0.7396    1.0853   12.3597 C.3     2  LIG2        0.0487
     54 C           0.6810    2.5830   12.7431 C.3     2  LIG2       -0.0367
     55 H          -0.1498    2.9831   12.4441 H       2  LIG2        0.0278
     56 H           0.7554    2.6959   13.7032 H       2  LIG2        0.0278
     57 C           1.8711    3.2089   12.0303 C.3     2  LIG2       -0.0467
     58 H           1.7614    4.1683   11.9429 H       2  LIG2        0.0269
     59 H           2.6982    3.0265   12.5038 H       2  LIG2        0.0269
     60 C           1.8587    2.5302   10.6728 C.3     2  LIG2       -0.0119
     61 H           1.3614    3.0584   10.0275 H       2  LIG2        0.0326
     62 H           2.7620    2.4028   10.3438 H       2  LIG2        0.0326
     63 C           1.1897    1.2141   10.9079 C.2     2  LIG2        0.0483
     64 C          -0.6525    0.4804   12.5354 C.3     2  LIG2        0.0374
     65 H          -1.2699    0.9529   11.9548 H       2  LIG2        0.0442
     66 H          -0.9401    0.6287   13.4496 H       2  LIG2        0.0442
     67 C           1.7593    0.3415   13.2130 C.ar    2  LIG2       -0.0345
     68 C           1.6206    0.3299   14.5970 C.ar    2  LIG2       -0.0576
     69 H           0.9290    0.8096   14.9920 H       2  LIG2        0.0621
     70 C           2.4968   -0.3849   15.3900 C.ar    2  LIG2       -0.0615
     71 H           2.3881   -0.3842   16.3137 H       2  LIG2        0.0618
     72 C           3.5197   -1.0904   14.8294 C.ar    2  LIG2       -0.0617
     73 H           4.1019   -1.5751   15.3679 H       2  LIG2        0.0618
     74 C           3.6880   -1.0824   13.4603 C.ar    2  LIG2       -0.0615
     75 H           4.3944   -1.5469   13.0736 H       2  LIG2        0.0618
     76 C           2.7995   -0.3806   12.6694 C.ar    2  LIG2       -0.0576
     77 H           2.9065   -0.3950   11.7460 H       2  LIG2        0.0621
     78 C           1.3307   -0.4732    7.8874 C.ar    2  LIG2        0.0785
     79 C           1.8970   -0.4240    6.5768 C.ar    2  LIG2        0.1507
     80 C           1.7428   -1.4659    5.6829 C.ar    2  LIG2        0.0006
     81 H           2.1082   -1.4087    4.8303 H       2  LIG2        0.0664
     82 C           1.0528   -2.5750    6.0583 C.ar    2  LIG2        0.1285
     83 C           0.4982   -2.6713    7.3271 C.ar    2  LIG2       -0.0296
     84 H           0.0279   -3.4368    7.5691 H       2  LIG2        0.0641
     85 C           0.6360   -1.6569    8.2207 C.ar    2  LIG2       -0.0348
     86 H           0.2657   -1.7444    9.0698 H       2  LIG2        0.0638
     87 H           1.9453    1.1794    8.5865 H       2  LIG2        0.1744
     88 H           4.8743    4.6885    6.4801 H       1  LIG1        0.1744
@<TRIPOS>BOND
     1     1    30    1
     2    41    40    1
     3    43    42    1
     4    21    20    1
     5    40    42   ar
     6    40    38   ar
     7    42    33   ar
     8    39    38    1
     9    38    36   ar
    10    30    32    1
    11    30    31    1
    12    30    19    1
    13    20    22    1
    14    20    19    1
    15    20    23    1
    16    33    19    1
    17    33    34   ar
    18    36    34   ar
    19    36    37    1
    20    25    23    1
    21    19    29    1
    22    34    35    1
    23    23    24    1
    24    23    26    1
    25    17    10    2
    26    29    26    1
    27    29     3    2
    28    26    27    1
    29    26    28    1
    30    81    80    1
    31     3     4    1
    32    16     9    2
    33    10    18    2
    34    10    82    1
    35    80    82   ar
    36    80    79   ar
    37    52    51    1
    38    82    83   ar
    39     9    79    1
    40     9    15    2
    41     4    88    1
    42     4    44    1
    43    79    78   ar
    44    51    44   ar
    45    51    49   ar
    46    44    45   ar
    47    83    84    1
    48    83    85   ar
    49    50    49    1
    50    49    48   ar
    51    78    85   ar
    52    78     8    1
    53    11     5    2
    54    85    86    1
    55    45     5    1
    56    45    46   ar
    57    87     8    1
    58     8     7    1
    59    48    46   ar
    60    48     6    1
    61     5    12    2
    62    46    47    1
    63    14     6    2
    64     6    13    2
    65    61    60    1
    66     7    63    2
    67    62    60    1
    68    60    63    1
    69    60    57    1
    70    63    53    1
    71    77    76    1
    72    58    57    1
    73    65    64    1
    74    57    59    1
    75    57    54    1
    76     2    64    1
    77    53    64    1
    78    53    54    1
    79    53    67    1
    80    55    54    1
    81    64    66    1
    82    76    67   ar
    83    76    74   ar
    84    54    56    1
    85    75    74    1
    86    67    68   ar
    87    74    72   ar
    88    68    69    1
    89    68    70   ar
    90    72    73    1
    91    72    70   ar
    92    70    71    1
