@<TRIPOS>MOLECULE
?
 60 63 0 0 0
SMALL
GASTEIGER

@<TRIPOS>ATOM
      1 O           3.2550   12.9640    8.6021 O.2     1  LIG1       -0.2499
      2 O           1.6011   13.2360    7.1294 O.3     1  LIG1       -0.4673
      3 O           5.0551   10.1594    7.1679 O.2     1  LIG1       -0.2499
      4 O           3.1361    9.9719    8.2988 O.3     1  LIG1       -0.4673
      5 C           3.9822   12.1719    5.4431 C.3     1  LIG1        0.0153
      6 H           4.4274   11.4266    4.9893 H       1  LIG1        0.0368
      7 C           3.0800   12.8801    4.3992 C.3     1  LIG1        0.0031
      8 H           2.4268   13.4127    4.9010 H       1  LIG1        0.0364
      9 C           4.0202   13.8831    3.6716 C.3     1  LIG1        0.0169
     10 H           4.4561   13.4170    2.9292 H       1  LIG1        0.0403
     11 C           5.0603   14.1731    4.7343 C.ar    1  LIG1       -0.0359
     12 C           5.0366   13.2192    5.7419 C.ar    1  LIG1       -0.0383
     13 C           5.9369   13.2991    6.7949 C.ar    1  LIG1       -0.0551
     14 H           5.9145   12.6618    7.4712 H       1  LIG1        0.0623
     15 C           6.8742   14.3271    6.8444 C.ar    1  LIG1       -0.0502
     16 C           6.8891   15.2575    5.8161 C.ar    1  LIG1       -0.0585
     17 H           7.5194   15.9416    5.8330 H       1  LIG1        0.0620
     18 C           5.9930   15.1966    4.7656 C.ar    1  LIG1       -0.0575
     19 H           6.0155   15.8348    4.0888 H       1  LIG1        0.0621
     20 C           7.8419   14.4344    7.9964 C.3     1  LIG1       -0.0397
     21 H           8.7320   14.2547    7.6851 H       1  LIG1        0.0278
     22 H           7.6053   13.7959    8.6739 H       1  LIG1        0.0278
     23 H           7.8040   15.3204    8.3639 H       1  LIG1        0.0278
     24 C           3.3001   15.0923    3.1211 C.ar    1  LIG1       -0.0393
     25 C           2.6427   15.9724    3.9620 C.ar    1  LIG1       -0.0577
     26 H           2.6524   15.8234    4.8794 H       1  LIG1        0.0621
     27 C           1.9700   17.0726    3.4582 C.ar    1  LIG1       -0.0586
     28 H           1.5376   17.6485    4.0456 H       1  LIG1        0.0620
     29 C           1.9279   17.3315    2.1093 C.ar    1  LIG1       -0.0504
     30 C           2.5955   16.4685    1.2706 C.ar    1  LIG1       -0.0586
     31 H           2.5918   16.6284    0.3551 H       1  LIG1        0.0620
     32 C           3.2747   15.3633    1.7646 C.ar    1  LIG1       -0.0577
     33 H           3.7184   14.7976    1.1752 H       1  LIG1        0.0621
     34 C           1.1753   18.5343    1.5719 C.3     1  LIG1       -0.0397
     35 H           1.3422   19.2941    2.1346 H       1  LIG1        0.0278
     36 H           0.2341   18.3438    1.5617 H       1  LIG1        0.0278
     37 H           1.4736   18.7256    0.6788 H       1  LIG1        0.0278
     38 C           2.2961   11.9403    3.5165 C.ar    1  LIG1       -0.0428
     39 C           2.9064   11.1936    2.5233 C.ar    1  LIG1       -0.0583
     40 H           3.8262   11.2570    2.4073 H       1  LIG1        0.0620
     41 C           2.1794   10.3572    1.7018 C.ar    1  LIG1       -0.0615
     42 H           2.6070    9.8764    1.0300 H       1  LIG1        0.0618
     43 C           0.8276   10.2359    1.8772 C.ar    1  LIG1       -0.0617
     44 H           0.3318    9.6912    1.3106 H       1  LIG1        0.0618
     45 C           0.2058   10.9188    2.8896 C.ar    1  LIG1       -0.0615
     46 H          -0.7056   10.8040    3.0371 H       1  LIG1        0.0618
     47 C           0.9333   11.7801    3.6934 C.ar    1  LIG1       -0.0583
     48 H           0.4985   12.2586    4.3634 H       1  LIG1        0.0620
     49 C           3.1816   11.5834    6.6231 C.3     1  LIG1        0.1602
     50 H           2.3813   11.1630    6.2450 H       1  LIG1        0.0535
     51 C           2.7078   12.6539    7.5899 C.2     1  LIG1        0.3214
     52 C           1.1009   14.3661    7.8815 C.3     1  LIG1        0.0817
     53 H           0.9161   14.0937    8.7838 H       1  LIG1        0.0661
     54 H           0.2947   14.6907    7.4732 H       1  LIG1        0.0661
     55 H           1.7599   15.0640    7.8872 H       1  LIG1        0.0661
     56 C           3.9310   10.5079    7.3780 C.2     1  LIG1        0.3214
     57 C           3.7006    8.8975    9.0779 C.3     1  LIG1        0.0817
     58 H           3.9189    8.1624    8.4993 H       1  LIG1        0.0661
     59 H           3.0633    8.6098    9.7353 H       1  LIG1        0.0661
     60 H           4.4965    9.2054    9.5176 H       1  LIG1        0.0661
@<TRIPOS>BOND
     1    31    30    1
     2    37    34    1
     3    42    41    1
     4    33    32    1
     5    30    32   ar
     6    30    29   ar
     7    44    43    1
     8    36    34    1
     9    34    29    1
    10    34    35    1
    11    41    43   ar
    12    41    39   ar
    13    32    24   ar
    14    43    45   ar
    15    29    27   ar
    16    40    39    1
    17    39    38   ar
    18    45    46    1
    19    45    47   ar
    20    10     9    1
    21    24     9    1
    22    24    25   ar
    23    27    25   ar
    24    27    28    1
    25    38    47   ar
    26    38     7    1
    27     9     7    1
    28     9    11    1
    29    47    48    1
    30    25    26    1
    31    19    18    1
    32     7     8    1
    33     7     5    1
    34    11    18   ar
    35    11    12   ar
    36    18    16   ar
    37     6     5    1
    38     5    12    1
    39     5    49    1
    40    12    13   ar
    41    16    17    1
    42    16    15   ar
    43    50    49    1
    44    49    56    1
    45    49    51    1
    46    13    15   ar
    47    13    14    1
    48    15    20    1
    49     2    51    1
    50     2    52    1
    51     3    56    2
    52    56     4    1
    53    54    52    1
    54    51     1    2
    55    21    20    1
    56    52    55    1
    57    52    53    1
    58    20    23    1
    59    20    22    1
    60     4    57    1
    61    58    57    1
    62    57    60    1
    63    57    59    1
