@<TRIPOS>MOLECULE
?
 171 168 0 0 0
SMALL
GASTEIGER

@<TRIPOS>ATOM
      1 CL          8.8555   -0.4761    1.0832 Cl      1  LIG1       -0.1216
      2 O           4.0434   -3.1016    1.1724 O.2     1  LIG1       -0.2488
      3 O           5.8866   -3.3728   -0.1053 O.3     1  LIG1       -0.4666
      4 O           7.3934    3.7954    1.2435 O.2     1  LIG1       -0.2265
      5 O           6.6090    5.1191    2.9295 O.3     1  LIG1       -0.4447
      6 O           4.3175   -0.1160   -0.9104 O.2     1  LIG1       -0.2264
      7 O           3.1905    1.1281    0.6422 O.3     1  LIG1       -0.4447
      8 N           4.7187   -0.3452    1.3120 N.am    1  LIG1       -0.2679
      9 H           4.5204   -0.0847    2.1290 H       1  LIG1        0.1528
     10 N           7.6797    3.2560    3.4426 N.am    1  LIG1       -0.2811
     11 H           7.6247    3.5365    4.2747 H       1  LIG1        0.1520
     12 C           5.0778   -2.6890    0.7424 C.2     1  LIG1        0.3275
     13 C           5.7262   -1.3514    1.0899 C.3     1  LIG1        0.1245
     14 H           6.2852   -1.0641    0.3118 H       1  LIG1        0.0616
     15 C           6.6518   -1.5360    2.3002 C.3     1  LIG1       -0.0076
     16 H           6.0913   -1.5862    3.1147 H       1  LIG1        0.0303
     17 H           7.1146   -2.4047    2.2058 H       1  LIG1        0.0303
     18 C           7.7003   -0.4555    2.5103 C.3     1  LIG1        0.0376
     19 H           8.2276   -0.7141    3.3181 H       1  LIG1        0.0467
     20 C           7.1866    0.9467    2.7505 C.3     1  LIG1       -0.0209
     21 H           6.4970    0.9117    3.4592 H       1  LIG1        0.0294
     22 H           6.7480    1.2673    1.9226 H       1  LIG1        0.0294
     23 C           8.2535    1.9591    3.1593 C.3     1  LIG1        0.0160
     24 H           8.7262    1.6286    3.9639 H       1  LIG1        0.0463
     25 H           8.9185    2.0463    2.4299 H       1  LIG1        0.0463
     26 C           7.2235    4.0446    2.4330 C.2     1  LIG1        0.4008
     27 C           5.9293    6.0751    2.0237 C.3     1  LIG1        0.1068
     28 C           6.9424    6.7731    1.1330 C.3     1  LIG1       -0.0253
     29 H           7.7420    6.9912    1.6564 H       1  LIG1        0.0268
     30 H           6.5508    7.5981    0.7761 H       1  LIG1        0.0268
     31 H           7.1896    6.1812    0.3922 H       1  LIG1        0.0268
     32 C           5.3319    7.0844    2.9969 C.3     1  LIG1       -0.0253
     33 H           4.7290    6.6215    3.6163 H       1  LIG1        0.0268
     34 H           4.8300    7.7618    2.4984 H       1  LIG1        0.0268
     35 H           6.0521    7.5134    3.5027 H       1  LIG1        0.0268
     36 C           4.8548    5.3824    1.2295 C.3     1  LIG1       -0.0253
     37 H           5.2667    4.7982    0.5613 H       1  LIG1        0.0268
     38 H           4.2988    6.0514    0.7782 H       1  LIG1        0.0268
     39 H           4.2971    4.8462    1.8318 H       1  LIG1        0.0268
     40 C           4.0757    0.1973    0.2417 C.2     1  LIG1        0.4014
     41 C           2.4611    1.9517   -0.3663 C.3     1  LIG1        0.1068
     42 C           3.4414    2.7262   -1.2248 C.3     1  LIG1       -0.0253
     43 H           4.1260    3.1329   -0.6531 H       1  LIG1        0.0268
     44 H           2.9642    3.4293   -1.7135 H       1  LIG1        0.0268
     45 H           3.8686    2.1168   -1.8624 H       1  LIG1        0.0268
     46 C           1.6447    2.8905    0.5027 C.3     1  LIG1       -0.0253
     47 H           1.0478    2.3680    1.0780 H       1  LIG1        0.0268
     48 H           1.1114    3.4829   -0.0680 H       1  LIG1        0.0268
     49 H           2.2488    3.4265    1.0583 H       1  LIG1        0.0268
     50 C           1.5536    1.0494   -1.1906 C.3     1  LIG1       -0.0253
     51 H           2.0956    0.5250   -1.8157 H       1  LIG1        0.0268
     52 H           0.9158    1.5975   -1.6933 H       1  LIG1        0.0268
     53 H           1.0657    0.4459   -0.5940 H       1  LIG1        0.0268
     54 C           5.3954   -4.6599   -0.5380 C.3     1  LIG1        0.0817
     55 H           5.2749   -5.2413    0.2407 H       1  LIG1        0.0661
     56 H           6.0391   -5.0635   -1.1548 H       1  LIG1        0.0661
     57 H           4.5367   -4.5442   -0.9934 H       1  LIG1        0.0661
     58 CL         -3.3976   10.5611   -0.0353 Cl      2  LIG2       -0.1216
     59 O          -4.1638   16.0378    0.0457 O.2     2  LIG2       -0.2488
     60 O          -5.2134   14.3892   -1.0733 O.3     2  LIG2       -0.4666
     61 O           1.0326   10.4298    0.0944 O.2     2  LIG2       -0.2265
     62 O           2.6100   10.6850    1.7389 O.3     2  LIG2       -0.4447
     63 O          -1.5324   14.7254   -2.0621 O.2     2  LIG2       -0.2264
     64 O           0.0244   15.3615   -0.5100 O.3     2  LIG2       -0.4447
     65 N          -1.8618   14.4084    0.1603 N.am    2  LIG2       -0.2679
     66 H          -1.5383   14.4905    0.9737 H       2  LIG2        0.1528
     67 N           0.4856   10.3748    2.3054 N.am    2  LIG2       -0.2811
     68 H           0.7936   10.3387    3.1292 H       2  LIG2        0.1520
     69 C          -4.2007   14.9060   -0.3408 C.2     2  LIG2        0.3275
     70 C          -3.1610   13.8188   -0.0446 C.3     2  LIG2        0.1245
     71 H          -3.1108   13.2120   -0.8368 H       2  LIG2        0.0616
     72 C          -3.6430   13.0008    1.1600 C.3     2  LIG2       -0.0076
     73 H          -3.5019   13.5450    1.9750 H       2  LIG2        0.0303
     74 H          -4.6198   12.8620    1.0645 H       2  LIG2        0.0303
     75 C          -2.9963   11.6492    1.3825 C.3     2  LIG2        0.0376
     76 H          -3.4237   11.2475    2.1923 H       2  LIG2        0.0467
     77 C          -1.5080   11.6432    1.6186 C.3     2  LIG2       -0.0209
     78 H          -1.2939   12.3172    2.3111 H       2  LIG2        0.0294
     79 H          -1.0543   11.9193    0.7828 H       2  LIG2        0.0294
     80 C          -0.9448   10.2901    2.0600 C.3     2  LIG2        0.0160
     81 H          -1.4047    9.9972    2.8870 H       2  LIG2        0.0463
     82 H          -1.1195    9.6161    1.3571 H       2  LIG2        0.0463
     83 C           1.3439   10.5066    1.2772 C.2     2  LIG2        0.4008
     84 C           3.7115   10.9201    0.7833 C.3     2  LIG2        0.1068
     85 C           3.9055    9.6791   -0.0809 C.3     2  LIG2       -0.0253
     86 H           3.8816    8.8795    0.4856 H       2  LIG2        0.0268
     87 H           4.7713    9.7319   -0.5369 H       2  LIG2        0.0268
     88 H           3.1874    9.6302   -0.7465 H       2  LIG2        0.0268
     89 C           4.8991   11.1149    1.7125 C.3     2  LIG2       -0.0253
     90 H           4.7273   11.8741    2.3070 H       2  LIG2        0.0268
     91 H           5.7034   11.2899    1.1812 H       2  LIG2        0.0268
     92 H           5.0304   10.3048    2.2473 H       2  LIG2        0.0268
     93 C           3.4405   12.1724   -0.0259 C.3     2  LIG2       -0.0253
     94 H           2.7409   11.9898   -0.6879 H       2  LIG2        0.0268
     95 H           4.2629   12.4471   -0.4861 H       2  LIG2        0.0268
     96 H           3.1467   12.8902    0.5717 H       2  LIG2        0.0268
     97 C          -1.1441   14.8323   -0.9027 C.2     2  LIG2        0.4014
     98 C           1.0362   15.7954   -1.5179 C.3     2  LIG2        0.1068
     99 C           1.4487   14.6119   -2.3889 C.3     2  LIG2       -0.0253
    100 H           1.6181   13.8329   -1.8204 H       2  LIG2        0.0268
    101 H           2.2618   14.8405   -2.8849 H       2  LIG2        0.0268
    102 H           0.7284   14.4030   -3.0203 H       2  LIG2        0.0268
    103 C           2.1852   16.2517   -0.6386 C.3     2  LIG2       -0.0253
    104 H           1.8756   16.9602   -0.0379 H       2  LIG2        0.0268
    105 H           2.9120   16.5933   -1.2015 H       2  LIG2        0.0268
    106 H           2.5111   15.4925   -0.1095 H       2  LIG2        0.0268
    107 C           0.4926   16.9599   -2.3199 C.3     2  LIG2       -0.0253
    108 H          -0.2232   16.6441   -2.9113 H       2  LIG2        0.0268
    109 H           1.2140   17.3497   -2.8574 H       2  LIG2        0.0268
    110 H           0.1353   17.6376   -1.7099 H       2  LIG2        0.0268
    111 C          -6.2917   15.3119   -1.3981 C.3     2  LIG2        0.0817
    112 H          -6.6649   15.6816   -0.5706 H       2  LIG2        0.0661
    113 H          -6.9908   14.8349   -1.8894 H       2  LIG2        0.0661
    114 H          -5.9397   16.0401   -1.9521 H       2  LIG2        0.0661
    115 CL          7.6289   10.1727    4.5429 Cl      3  LIG3       -0.1216
    116 O          12.0486    6.8913    4.3224 O.2     3  LIG3       -0.2488
    117 O          10.1622    6.7271    5.5047 O.3     3  LIG3       -0.4666
    118 O           9.4573   14.1106    4.5278 O.2     3  LIG3       -0.2265
    119 O          10.4050   15.4829    2.9513 O.3     3  LIG3       -0.4447
    120 O          12.0911    9.8631    6.5194 O.2     3  LIG3       -0.2264
    121 O          13.3773   10.9461    4.9724 O.3     3  LIG3       -0.4447
    122 N          11.6932    9.6808    4.2902 N.am    3  LIG3       -0.2679
    123 H          11.9234    9.9266    3.4778 H       3  LIG3        0.1528
    124 N           9.2316   13.7237    2.3002 N.am    3  LIG3       -0.2811
    125 H           9.3683   14.0305    1.4868 H       3  LIG3        0.1520
    126 C          11.0338    7.3680    4.7483 C.2     3  LIG3        0.3275
    127 C          10.5766    8.7934    4.4962 C.3     3  LIG3        0.1245
    128 H          10.0690    9.1081    5.2992 H       3  LIG3        0.0616
    129 C           9.6122    8.7928    3.2817 C.3     3  LIG3       -0.0076
    130 H          10.1505    8.6734    2.4600 H       3  LIG3        0.0303
    131 H           9.0179    8.0045    3.3606 H       3  LIG3        0.0303
    132 C           8.7466   10.0223    3.1043 C.3     3  LIG3        0.0376
    133 H           8.1706    9.8560    2.3049 H       3  LIG3        0.0467
    134 C           9.4463   11.3387    2.8714 C.3     3  LIG3       -0.0209
    135 H          10.1179   11.2193    2.1545 H       3  LIG3        0.0294
    136 H           9.9288   11.5919    3.6973 H       3  LIG3        0.0294
    137 C           8.5154   12.4764    2.4818 C.3     3  LIG3        0.0160
    138 H           8.0467   12.2438    1.6404 H       3  LIG3        0.0463
    139 H           7.8316   12.5938    3.1873 H       3  LIG3        0.0463
    140 C           9.6883   14.4217    3.3585 C.2     3  LIG3        0.4008
    141 C          11.0661   16.3649    3.9359 C.3     3  LIG3        0.1068
    142 C          10.0253   17.0697    4.7981 C.3     3  LIG3       -0.0253
    143 H           9.3634   17.5049    4.2207 H       3  LIG3        0.0268
    144 H          10.4633   17.7448    5.3558 H       3  LIG3        0.0268
    145 H           9.5769   16.4126    5.3713 H       3  LIG3        0.0268
    146 C          11.8061   17.3610    3.0498 C.3     3  LIG3       -0.0253
    147 H          12.4547   16.8812    2.4922 H       3  LIG3        0.0268
    148 H          12.2754   18.0101    3.6117 H       3  LIG3        0.0268
    149 H          11.1624   17.8267    2.4761 H       3  LIG3        0.0268
    150 C          12.0652   15.5744    4.7701 C.3     3  LIG3       -0.0253
    151 H          11.5845   15.0183    5.4191 H       3  LIG3        0.0268
    152 H          12.6567   16.1925    5.2458 H       3  LIG3        0.0268
    153 H          12.5997   14.9986    4.1823 H       3  LIG3        0.0268
    154 C          12.3872   10.1338    5.3745 C.2     3  LIG3        0.4014
    155 C          14.1694   11.7158    5.9804 C.3     3  LIG3        0.1068
    156 C          13.2600   12.6085    6.7964 C.3     3  LIG3       -0.0253
    157 H          12.5932   13.0228    6.2076 H       3  LIG3        0.0268
    158 H          13.7909   13.3079    7.2301 H       3  LIG3        0.0268
    159 H          12.8050   12.0745    7.4796 H       3  LIG3        0.0268
    160 C          15.0865   12.5422    5.0845 C.3     3  LIG3       -0.0253
    161 H          15.6160   11.9418    4.5164 H       3  LIG3        0.0268
    162 H          15.6893   13.0793    5.6401 H       3  LIG3        0.0268
    163 H          14.5470   13.1329    4.5206 H       3  LIG3        0.0268
    164 C          14.9761   10.7471    6.8291 C.3     3  LIG3       -0.0253
    165 H          14.3775   10.2766    7.4459 H       3  LIG3        0.0268
    166 H          15.6486   11.2419    7.3416 H       3  LIG3        0.0268
    167 H          15.4237   10.0960    6.2475 H       3  LIG3        0.0268
    168 C          10.4747    5.3401    5.7895 C.3     3  LIG3        0.0817
    169 H          10.5888    4.8490    4.9501 H       3  LIG3        0.0661
    170 H           9.7447    4.9393    6.3077 H       3  LIG3        0.0661
    171 H          11.3074    5.2921    6.3103 H       3  LIG3        0.0661
@<TRIPOS>BOND
     1   102    99    1
     2   108   107    1
     3   101    99    1
     4   109   107    1
     5    99   100    1
     6    99    98    1
     7   107   110    1
     8   107    98    1
     9    63    97    2
    10   114   111    1
    11   113   111    1
    12    45    42    1
    13    51    50    1
    14    44    42    1
    15    52    50    1
    16    98   103    1
    17    98    64    1
    18   111    60    1
    19   111   112    1
    20    42    43    1
    21    42    41    1
    22   105   103    1
    23    50    53    1
    24    50    41    1
    25    56    54    1
    26    60    69    1
    27    57    54    1
    28     6    40    2
    29    97    64    1
    30    97    65   am
    31    71    70    1
    32    88    85    1
    33    94    93    1
    34   103   106    1
    35   103   104    1
    36    54     3    1
    37    54    55    1
    38    87    85    1
    39    95    93    1
    40    41    46    1
    41    41     7    1
    42    69    70    1
    43    69    59    2
    44     3    12    1
    45    85    86    1
    46    85    84    1
    47    48    46    1
    48    70    65    1
    49    70    72    1
    50    58    75    1
    51    93    96    1
    52    93    84    1
    53    61    83    2
    54    65    66    1
    55    40     7    1
    56    40     8   am
    57    14    13    1
    58    31    28    1
    59    46    49    1
    60    46    47    1
    61    37    36    1
    62    12    13    1
    63    12     2    2
    64    30    28    1
    65    38    36    1
    66    79    77    1
    67    84    89    1
    68    84    62    1
    69    74    72    1
    70     1    18    1
    71    13     8    1
    72    13    15    1
    73    28    29    1
    74    28    27    1
    75    72    75    1
    76    72    73    1
    77    91    89    1
    78    36    39    1
    79    36    27    1
    80     4    26    2
    81    83    62    1
    82    83    67   am
    83     8     9    1
    84    82    80    1
    85    75    77    1
    86    75    76    1
    87   125   124    1
    88    77    80    1
    89    77    78    1
    90   138   137    1
    91    89    92    1
    92    89    90    1
    93    22    20    1
    94    27     5    1
    95    27    32    1
    96    80    67    1
    97    80    81    1
    98   135   134    1
    99    17    15    1
   100   124   137    1
   101   124   140   am
   102    15    18    1
   103    15    16    1
   104   133   132    1
   105    67    68    1
   106    25    23    1
   107    26     5    1
   108    26    10   am
   109   130   129    1
   110   149   146    1
   111   137   134    1
   112   137   139    1
   113   147   146    1
   114    34    32    1
   115    18    20    1
   116    18    19    1
   117    20    23    1
   118    20    21    1
   119   134   132    1
   120   134   136    1
   121   119   140    1
   122   119   141    1
   123    32    35    1
   124    32    33    1
   125   146   148    1
   126   146   141    1
   127   132   129    1
   128   132   115    1
   129    23    10    1
   130    23    24    1
   131   129   131    1
   132   129   127    1
   133   140   118    2
   134    10    11    1
   135   123   122    1
   136   141   150    1
   137   141   142    1
   138   153   150    1
   139   143   142    1
   140   122   127    1
   141   122   154   am
   142   116   126    2
   143   127   126    1
   144   127   128    1
   145   161   160    1
   146   163   160    1
   147   126   117    1
   148   150   152    1
   149   150   151    1
   150   142   144    1
   151   142   145    1
   152   169   168    1
   153   121   154    1
   154   121   155    1
   155   160   162    1
   156   160   155    1
   157   154   120    2
   158   117   168    1
   159   168   170    1
   160   168   171    1
   161   155   156    1
   162   155   164    1
   163   157   156    1
   164   167   164    1
   165   156   158    1
   166   156   159    1
   167   164   166    1
   168   164   165    1
