@<TRIPOS>MOLECULE
Title
 22 23 0 0 0
SMALL
GASTEIGER

@<TRIPOS>ATOM
      1 O           1.4854    2.4424    9.0110 O.3     1  LIG1       -0.4672
      2 O           0.7341    3.9291    4.7457 O.3     1  LIG1       -0.4605
      3 O           2.9224    3.6320    5.0558 O.2     1  LIG1       -0.2496
      4 O           3.2388    3.4893    8.0811 O.2     1  LIG1       -0.2496
      5 C           1.3306    2.9242    6.7547 C.3     1  LIG1        0.1703
      6 C           1.8001    3.5219    5.4792 C.2     1  LIG1        0.3249
      7 C          -0.1900    3.0608    6.7435 C.3     1  LIG1        0.0235
      8 H          -0.6612    3.2469    7.5824 H       1  LIG1        0.0353
      9 C          -0.5225    3.8703    5.5118 C.3     1  LIG1        0.1047
     10 H          -1.2109    3.4103    4.9878 H       1  LIG1        0.0734
     11 C           2.1470    2.9982    7.9954 C.2     1  LIG1        0.3244
     12 C          -0.9728    5.2707    5.8321 C.3     1  LIG1       -0.0274
     13 H          -0.3174    5.6983    6.3879 H       1  LIG1        0.0265
     14 H          -1.8129    5.2384    6.2953 H       1  LIG1        0.0265
     15 H          -1.0749    5.7677    5.0172 H       1  LIG1        0.0265
     16 C           0.3939    1.7234    6.5237 C.3     1  LIG1       -0.0187
     17 H           0.3481    1.3534    5.6284 H       1  LIG1        0.0285
     18 H           0.3113    1.0727    7.2383 H       1  LIG1        0.0285
     19 C           2.1343    2.4451   10.3008 C.3     1  LIG1        0.0817
     20 H           2.9786    1.9927   10.2352 H       1  LIG1        0.0661
     21 H           1.5782    1.9939   10.9398 H       1  LIG1        0.0661
     22 H           2.2778    3.3506   10.5851 H       1  LIG1        0.0661
@<TRIPOS>BOND
     1     2     6    1
     2     2     9    1
     3    10     9    1
     4    15    12    1
     5     3     6    2
     6     6     5    1
     7     9    12    1
     8     9     7    1
     9    17    16    1
    10    12    14    1
    11    12    13    1
    12    16     7    1
    13    16     5    1
    14    16    18    1
    15     7     5    1
    16     7     8    1
    17     5    11    1
    18    11     4    2
    19    11     1    1
    20     1    19    1
    21    20    19    1
    22    19    22    1
    23    19    21    1
