@<TRIPOS>MOLECULE
?
 50 53 0 0 0
SMALL
GASTEIGER

@<TRIPOS>ATOM
      1 C           6.8375   10.3927   13.7475 C.2     1  LIG1       -0.0025
      2 C           6.1285    9.4650   13.0622 C.2     1  LIG1       -0.0025
      3 C           7.2492   11.7228   13.2100 C.ar    1  LIG1       -0.0166
      4 C           8.4593   12.2918   13.6300 C.ar    1  LIG1       -0.0528
      5 H           9.0343   11.7914   14.1972 H       1  LIG1        0.0624
      6 C           8.8375   13.5603   13.2419 C.ar    1  LIG1       -0.0458
      7 H           9.6729   13.9124   13.5236 H       1  LIG1        0.0630
      8 C           7.9936   14.3271   12.4345 C.ar    1  LIG1        0.0247
      9 C           6.7896   13.7702   11.9997 C.ar    1  LIG1       -0.0458
     10 H           6.2121   14.2756   11.4390 H       1  LIG1        0.0630
     11 C           6.4299   12.4853   12.3797 C.ar    1  LIG1       -0.0528
     12 H           5.6108   12.1189   12.0680 H       1  LIG1        0.0624
     13 C           8.3504   15.6707   12.0709 C.1     1  LIG1       -0.0697
     14 C           8.6380   16.7679   11.7846 C.1     1  LIG1       -0.1139
     15 H           8.8711   17.6589   11.5505 H       1  LIG1        0.1232
     16 C           5.7800    9.5620   11.6121 C.ar    1  LIG1       -0.0166
     17 C           6.7466    9.7246   10.6271 C.ar    1  LIG1       -0.0528
     18 H           7.6610    9.7895   10.8753 H       1  LIG1        0.0624
     19 C           6.3967    9.7944    9.2848 C.ar    1  LIG1       -0.0458
     20 H           7.0727    9.9056    8.6266 H       1  LIG1        0.0630
     21 C           5.0653    9.7018    8.8975 C.ar    1  LIG1        0.0247
     22 C           4.0887    9.5305    9.8806 C.ar    1  LIG1       -0.0458
     23 H           3.1746    9.4680    9.6315 H       1  LIG1        0.0630
     24 C           4.4434    9.4508   11.2178 C.ar    1  LIG1       -0.0528
     25 H           3.7703    9.3191   11.8753 H       1  LIG1        0.0624
     26 C           4.7008    9.7774    7.5090 C.1     1  LIG1       -0.0697
     27 C           4.3959    9.8453    6.3742 C.1     1  LIG1       -0.1139
     28 H           4.1507    9.8996    5.4575 H       1  LIG1        0.1232
     29 C           7.2413   10.1476   15.1644 C.ar    1  LIG1       -0.0167
     30 C           6.8872   11.0753   16.1485 C.ar    1  LIG1       -0.0540
     31 H           6.3939   11.8524   15.9108 H       1  LIG1        0.0624
     32 C           7.2535   10.8652   17.4702 C.ar    1  LIG1       -0.0612
     33 H           7.0083   11.4997   18.1339 H       1  LIG1        0.0618
     34 C           7.9658    9.7482   17.8251 C.ar    1  LIG1       -0.0617
     35 H           8.2054    9.6049   18.7327 H       1  LIG1        0.0618
     36 C           8.3332    8.8384   16.8647 C.ar    1  LIG1       -0.0612
     37 H           8.8292    8.0673   17.1115 H       1  LIG1        0.0618
     38 C           7.9826    9.0353   15.5298 C.ar    1  LIG1       -0.0540
     39 H           8.2530    8.4067   14.8709 H       1  LIG1        0.0624
     40 C           5.5959    8.2402   13.7338 C.ar    1  LIG1       -0.0167
     41 C           6.0160    6.9769   13.3245 C.ar    1  LIG1       -0.0540
     42 H           6.6456    6.8930   12.6190 H       1  LIG1        0.0624
     43 C           5.5175    5.8402   13.9445 C.ar    1  LIG1       -0.0612
     44 H           5.8299    4.9833   13.6781 H       1  LIG1        0.0618
     45 C           4.5777    5.9414   14.9405 C.ar    1  LIG1       -0.0617
     46 H           4.2328    5.1589   15.3534 H       1  LIG1        0.0618
     47 C           4.1358    7.1892   15.3379 C.ar    1  LIG1       -0.0612
     48 H           3.4757    7.2636   16.0175 H       1  LIG1        0.0618
     49 C           4.6510    8.3323   14.7500 C.ar    1  LIG1       -0.0540
     50 H           4.3568    9.1867   15.0428 H       1  LIG1        0.0624
@<TRIPOS>BOND
     1    28    27    1
     2    27    26    3
     3    26    21    1
     4    20    19    1
     5    21    19   ar
     6    21    22   ar
     7    19    17   ar
     8    23    22    1
     9    22    24   ar
    10    17    18    1
    11    17    16   ar
    12    24    16   ar
    13    24    25    1
    14    10     9    1
    15    15    14    1
    16    16     2    1
    17    14    13    3
    18     9    11   ar
    19     9     8   ar
    20    12    11    1
    21    13     8    1
    22    11     3   ar
    23     8     6   ar
    24    42    41    1
    25     2    40    1
    26     2     1    2
    27     3     4   ar
    28     3     1    1
    29     6     7    1
    30     6     4   ar
    31    41    40   ar
    32    41    43   ar
    33     4     5    1
    34    44    43    1
    35    40    49   ar
    36     1    29    1
    37    43    45   ar
    38    49    50    1
    39    49    47   ar
    40    39    38    1
    41    45    47   ar
    42    45    46    1
    43    29    38   ar
    44    29    30   ar
    45    47    48    1
    46    38    36   ar
    47    31    30    1
    48    30    32   ar
    49    36    37    1
    50    36    34   ar
    51    32    34   ar
    52    32    33    1
    53    34    35    1
