@<TRIPOS>MOLECULE
?
 92 96 0 0 0
SMALL
GASTEIGER

@<TRIPOS>ATOM
      1 C           4.6939    4.6475    0.7630 C.2     1  LIG1        0.1549
      2 C           4.7858    3.2427    1.4446 C.3     1  LIG1        0.1038
      3 C           5.5068    3.3118    2.7974 C.ar    1  LIG1       -0.0254
      4 C           6.2099    2.2294    3.3213 C.ar    1  LIG1       -0.0570
      5 H           6.3157    1.4425    2.8004 H       1  LIG1        0.0621
      6 C           6.7558    2.2860    4.5923 C.ar    1  LIG1       -0.0615
      7 H           7.2564    1.5511    4.9241 H       1  LIG1        0.0618
      8 C           6.5778    3.4072    5.3830 C.ar    1  LIG1       -0.0617
      9 H           6.9560    3.4459    6.2536 H       1  LIG1        0.0618
     10 C           5.8479    4.4658    4.8969 C.ar    1  LIG1       -0.0615
     11 H           5.7045    5.2322    5.4401 H       1  LIG1        0.0618
     12 C           5.3198    4.4159    3.6150 C.ar    1  LIG1       -0.0570
     13 H           4.8187    5.1547    3.2908 H       1  LIG1        0.0621
     14 C           3.4013    2.6575    1.7785 C.ar    1  LIG1       -0.0254
     15 C           3.2119    1.2830    1.7687 C.ar    1  LIG1       -0.0570
     16 H           3.9054    0.7187    1.4501 H       1  LIG1        0.0621
     17 C           2.0216    0.7202    2.2175 C.ar    1  LIG1       -0.0615
     18 H           1.9055   -0.2223    2.2072 H       1  LIG1        0.0618
     19 C           1.0068    1.5410    2.6794 C.ar    1  LIG1       -0.0617
     20 H           0.1888    1.1633    2.9773 H       1  LIG1        0.0618
     21 C           1.1837    2.9062    2.7064 C.ar    1  LIG1       -0.0615
     22 H           0.4875    3.4692    3.0239 H       1  LIG1        0.0618
     23 C           2.3762    3.4599    2.2717 C.ar    1  LIG1       -0.0570
     24 H           2.4961    4.4024    2.3101 H       1  LIG1        0.0621
     25 C           5.5081    2.4522    0.3339 C.ar    1  LIG1       -0.0254
     26 C           4.7844    2.1053   -0.8048 C.ar    1  LIG1       -0.0570
     27 H           3.8488    2.2697   -0.8263 H       1  LIG1        0.0621
     28 C           5.3947    1.5296   -1.9036 C.ar    1  LIG1       -0.0615
     29 H           4.8840    1.3184   -2.6767 H       1  LIG1        0.0618
     30 C           6.7581    1.2620   -1.8732 C.ar    1  LIG1       -0.0617
     31 H           7.1809    0.8427   -2.6123 H       1  LIG1        0.0618
     32 C           7.4895    1.6121   -0.7626 C.ar    1  LIG1       -0.0615
     33 H           8.4220    1.4347   -0.7427 H       1  LIG1        0.0618
     34 C           6.8832    2.2188    0.3281 C.ar    1  LIG1       -0.0570
     35 H           7.4092    2.4765    1.0771 H       1  LIG1        0.0621
     36 C           5.9885    5.4328    0.6006 C.3     1  LIG1        0.0134
     37 H           6.7019    4.9944    1.1462 H       1  LIG1        0.0372
     38 C           6.4159    5.4272   -0.8712 C.3     1  LIG1       -0.0559
     39 H           6.5268    4.5032   -1.1752 H       1  LIG1        0.0236
     40 H           7.2650    5.9070   -0.9662 H       1  LIG1        0.0236
     41 H           5.7286    5.8682   -1.4131 H       1  LIG1        0.0236
     42 C           5.8015    6.8738    1.0953 C.3     1  LIG1       -0.0559
     43 H           5.0745    7.3003    0.5948 H       1  LIG1        0.0236
     44 H           6.6315    7.3779    0.9581 H       1  LIG1        0.0236
     45 H           5.5792    6.8660    2.0497 H       1  LIG1        0.0236
     46 C           5.9715   -4.8427    3.8441 C.2     2  LIG2        0.1549
     47 C           5.3993   -3.4633    4.3166 C.3     2  LIG2        0.1038
     48 C           3.9688   -3.5998    4.8746 C.ar    2  LIG2       -0.0254
     49 C           2.9915   -2.6396    4.6357 C.ar    2  LIG2       -0.0570
     50 H           3.1913   -1.8949    4.0817 H       2  LIG2        0.0621
     51 C           1.7272   -2.7575    5.1961 C.ar    2  LIG2       -0.0615
     52 H           1.0695   -2.0991    5.0109 H       2  LIG2        0.0618
     53 C           1.4156   -3.8153    6.0144 C.ar    2  LIG2       -0.0617
     54 H           0.5442   -3.8957    6.3822 H       2  LIG2        0.0618
     55 C           2.3833   -4.7594    6.2968 C.ar    2  LIG2       -0.0615
     56 H           2.1819   -5.4908    6.8693 H       2  LIG2        0.0618
     57 C           3.6471   -4.6384    5.7443 C.ar    2  LIG2       -0.0570
     58 H           4.3123   -5.2814    5.9642 H       2  LIG2        0.0621
     59 C           6.2235   -2.8390    5.4519 C.ar    2  LIG2       -0.0254
     60 C           6.1200   -1.4743    5.7306 C.ar    2  LIG2       -0.0570
     61 H           5.5758   -0.9229    5.1813 H       2  LIG2        0.0621
     62 C           6.8035   -0.9149    6.8006 C.ar    2  LIG2       -0.0615
     63 H           6.7345    0.0181    6.9722 H       2  LIG2        0.0618
     64 C           7.5839   -1.7098    7.6168 C.ar    2  LIG2       -0.0617
     65 H           8.0615   -1.3236    8.3418 H       2  LIG2        0.0618
     66 C           7.6694   -3.0626    7.3782 C.ar    2  LIG2       -0.0615
     67 H           8.1954   -3.6114    7.9464 H       2  LIG2        0.0618
     68 C           6.9862   -3.6253    6.3065 C.ar    2  LIG2       -0.0570
     69 H           7.0418   -4.5627    6.1555 H       2  LIG2        0.0621
     70 C           5.4553   -2.6619    2.9995 C.ar    2  LIG2       -0.0254
     71 C           4.5173   -2.9318    1.9981 C.ar    2  LIG2       -0.0570
     72 H           3.8007   -3.5287    2.1799 H       2  LIG2        0.0621
     73 C           4.6139   -2.3460    0.7487 C.ar    2  LIG2       -0.0615
     74 H           3.9638   -2.5412    0.0836 H       2  LIG2        0.0618
     75 C           5.6561   -1.4740    0.4630 C.ar    2  LIG2       -0.0617
     76 H           5.7234   -1.0676   -0.3923 H       2  LIG2        0.0618
     77 C           6.5919   -1.2078    1.4404 C.ar    2  LIG2       -0.0615
     78 H           7.3079   -0.6127    1.2523 H       2  LIG2        0.0618
     79 C           6.5028   -1.7959    2.6964 C.ar    2  LIG2       -0.0570
     80 H           7.1620   -1.6053    3.3535 H       2  LIG2        0.0621
     81 C           7.4128   -4.9187    3.3240 C.3     2  LIG2        0.0134
     82 H           7.8984   -4.0741    3.5512 H       2  LIG2        0.0372
     83 C           7.3469   -5.0872    1.7962 C.3     2  LIG2       -0.0559
     84 H           8.2521   -5.2116    1.4420 H       2  LIG2        0.0236
     85 H           6.9457   -4.2861    1.3970 H       2  LIG2        0.0236
     86 H           6.7998   -5.8708    1.5771 H       2  LIG2        0.0236
     87 C           8.1398   -6.1169    3.9423 C.3     2  LIG2       -0.0559
     88 H           8.2675   -5.9612    4.9016 H       2  LIG2        0.0236
     89 H           9.0126   -6.2275    3.5110 H       2  LIG2        0.0236
     90 H           7.6049   -6.9281    3.8100 H       2  LIG2        0.0236
     91 O           3.6643    5.0577    0.2741 O.2     1  LIG1       -0.2955
     92 O           5.2654   -5.8253    3.7748 O.2     2  LIG2       -0.2955
@<TRIPOS>BOND
     1    29    28    1
     2    31    30    1
     3    28    30   ar
     4    28    26   ar
     5    30    32   ar
     6    41    38    1
     7    39    38    1
     8    40    38    1
     9    38    36    1
    10    27    26    1
    11    26    25   ar
    12    32    33    1
    13    32    34   ar
    14    76    75    1
    15    74    73    1
    16    91     1    2
    17    34    25   ar
    18    34    35    1
    19    25     2    1
    20    75    73   ar
    21    75    77   ar
    22    43    42    1
    23    36     1    1
    24    36    42    1
    25    36    37    1
    26    73    71   ar
    27     1     2    1
    28    44    42    1
    29    42    45    1
    30    78    77    1
    31    85    83    1
    32    77    79   ar
    33    84    83    1
    34     2    14    1
    35     2     3    1
    36    16    15    1
    37    86    83    1
    38    15    14   ar
    39    15    17   ar
    40    14    23   ar
    41    83    81    1
    42    71    72    1
    43    71    70   ar
    44    18    17    1
    45    17    19   ar
    46    23    24    1
    47    23    21   ar
    48    19    21   ar
    49    19    20    1
    50    79    70   ar
    51    79    80    1
    52    21    22    1
    53     3     4   ar
    54     3    12   ar
    55     5     4    1
    56    70    47    1
    57    13    12    1
    58     4     6   ar
    59    81    82    1
    60    81    46    1
    61    81    87    1
    62    89    87    1
    63    12    10   ar
    64    92    46    2
    65    90    87    1
    66    46    47    1
    67    87    88    1
    68    50    49    1
    69    47    48    1
    70    47    59    1
    71     6     7    1
    72     6     8   ar
    73    49    48   ar
    74    49    51   ar
    75    48    57   ar
    76    10     8   ar
    77    10    11    1
    78    52    51    1
    79    61    60    1
    80    51    53   ar
    81     8     9    1
    82    59    60   ar
    83    59    68   ar
    84    60    62   ar
    85    57    58    1
    86    57    55   ar
    87    53    55   ar
    88    53    54    1
    89    69    68    1
    90    55    56    1
    91    68    66   ar
    92    62    63    1
    93    62    64   ar
    94    66    64   ar
    95    66    67    1
    96    64    65    1
