@<TRIPOS>MOLECULE
?
 54 56 0 0 0
SMALL
GASTEIGER

@<TRIPOS>ATOM
      1 P           3.5798    6.3645    2.7460 P.3     1  LIG1        1.0000
      2 F           3.1644    9.8443    6.7915 F       1  LIG1        0.0000
      3 F           4.5273   11.1694    8.6536 F       1  LIG1        0.0000
      4 F           6.0728   13.3118    7.9712 F       1  LIG1        0.0000
      5 F           6.1915   14.0951    5.3686 F       1  LIG1        0.0000
      6 F           4.8266   12.8497    3.5004 F       1  LIG1        0.0000
      7 F           1.0692    8.2719    5.1426 F       1  LIG1        0.0000
      8 F          -1.4508    8.7425    5.8107 F       1  LIG1        0.0000
      9 F          -2.5613   11.2102    5.4353 F       1  LIG1        0.0000
     10 F          -1.0440   13.2201    4.4262 F       1  LIG1        0.0000
     11 F           1.4950   12.7984    3.7798 F       1  LIG1        0.0000
     12 F           5.4458   11.0314    1.1756 F       1  LIG1        0.0000
     13 F           3.9682   12.3401    0.3574 F       1  LIG1        0.0000
     14 F           4.4421   10.5083   -0.6470 F       1  LIG1        0.0000
     15 F           1.4001   11.6875    0.6804 F       1  LIG1        0.0000
     16 F           1.8309    9.9772   -0.5258 F       1  LIG1        0.0000
     17 F           0.9206    9.7298    1.4092 F       1  LIG1        0.0000
     18 O           3.1890   10.9869    2.6027 O.3     1  LIG1        0.0000
     19 C           3.8984   11.2656    5.0337 C.ar    1  LIG1        0.0000
     20 C           3.8988   10.9095    6.3799 C.ar    1  LIG1        0.0000
     21 C           4.6050   11.5669    7.3705 C.ar    1  LIG1        0.0000
     22 C           5.3770   12.6509    7.0333 C.ar    1  LIG1        0.0000
     23 C           5.4236   13.0491    5.7204 C.ar    1  LIG1        0.0000
     24 C           4.6943   12.3614    4.7596 C.ar    1  LIG1        0.0000
     25 C           1.4288   10.5086    4.3926 C.ar    1  LIG1        0.0000
     26 C           0.6059    9.5338    4.9267 C.ar    1  LIG1        0.0000
     27 C          -0.7197    9.7458    5.2892 C.ar    1  LIG1        0.0000
     28 C          -1.2722   10.9822    5.1098 C.ar    1  LIG1        0.0000
     29 C          -0.5140   11.9967    4.5883 C.ar    1  LIG1        0.0000
     30 C           0.8046   11.7435    4.2555 C.ar    1  LIG1        0.0000
     31 C           3.2134   10.3065    1.4013 C.3     1  LIG1        0.0000
     32 C           3.6290    8.8127    1.4383 C.3     1  LIG1        0.0000
     33 H           3.2750    8.3551    0.6349 H       1  LIG1        0.0000
     34 H           4.6169    8.7474    1.4146 H       1  LIG1        0.0000
     35 C           3.1049    8.1062    2.6977 C.3     1  LIG1        0.0000
     36 H           2.1064    8.1590    2.6931 H       1  LIG1        0.0000
     37 C           3.6239    8.8605    3.9385 C.3     1  LIG1        0.0000
     38 H           4.6136    8.8927    3.9205 H       1  LIG1        0.0000
     39 H           3.3455    8.3840    4.7602 H       1  LIG1        0.0000
     40 C           4.2646   11.0545    0.5591 C.3     1  LIG1        0.0000
     41 C           1.8306   10.4357    0.7317 C.3     1  LIG1        0.0000
     42 C           3.0546    5.4822    1.2856 C.3     1  LIG1        0.0000
     43 H           3.1953    4.5215    1.4161 H       1  LIG1        0.0000
     44 H           3.5763    5.7868    0.5149 H       1  LIG1        0.0000
     45 H           2.1031    5.6544    1.1249 H       1  LIG1        0.0000
     46 C           5.3555    6.2025    2.8903 C.3     1  LIG1        0.0000
     47 H           5.5944    5.2532    2.9316 H       1  LIG1        0.0000
     48 H           5.6590    6.6519    3.7069 H       1  LIG1        0.0000
     49 H           5.7846    6.6140    2.1124 H       1  LIG1        0.0000
     50 C           2.7911    5.6258    4.1591 C.3     1  LIG1        0.0000
     51 H           3.0095    4.6708    4.1926 H       1  LIG1        0.0000
     52 H           1.8205    5.7360    4.0858 H       1  LIG1        0.0000
     53 H           3.1096    6.0635    4.9767 H       1  LIG1        0.0000
     54 B           3.0267   10.3666    3.9493 B       1  LIG1        0.0000
@<TRIPOS>BOND
     1    14    40    1
     2    16    41    1
     3    13    40    1
     4    44    42    1
     5    40    12    1
     6    40    31    1
     7    33    32    1
     8    15    41    1
     9    41    31    1
    10    41    17    1
    11    45    42    1
    12    42    43    1
    13    42     1    1
    14    31    32    1
    15    31    18    1
    16    34    32    1
    17    32    35    1
    18    49    46    1
    19    18    54    1
    20    36    35    1
    21    35     1    1
    22    35    37    1
    23     1    46    1
    24     1    50    1
    25    46    47    1
    26    46    48    1
    27     6    24    1
    28    11    30    1
    29    38    37    1
    30    37    54    1
    31    37    39    1
    32    54    25    1
    33    54    19    1
    34    52    50    1
    35    50    51    1
    36    50    53    1
    37    30    25   ar
    38    30    29   ar
    39    25    26   ar
    40    10    29    1
    41    29    28   ar
    42    24    19   ar
    43    24    23   ar
    44    26     7    1
    45    26    27   ar
    46    19    20   ar
    47    28    27   ar
    48    28     9    1
    49    27     8    1
    50     5    23    1
    51    23    22   ar
    52    20     2    1
    53    20    21   ar
    54    22    21   ar
    55    22     4    1
    56    21     3    1
