@<TRIPOS>MOLECULE
?
 122 123 0 0 0
SMALL
GASTEIGER

@<TRIPOS>ATOM
      1 N          12.2751   -1.6894   12.9519 N.1     1  LIG1       -0.1901
      2 N          13.2617   -1.5834    8.6920 N.1     1  LIG1       -0.1901
      3 N           9.4242   -3.7368    9.4825 N.1     1  LIG1       -0.1901
      4 N           8.5268   -1.5593    5.8101 N.1     1  LIG1       -0.1901
      5 N          11.7483   -0.8905    5.5633 N.1     1  LIG1       -0.1901
      6 N          11.0418    3.4160    5.9163 N.1     1  LIG1       -0.1901
      7 N           7.3181    4.7437    9.5034 N.1     1  LIG1       -0.1901
      8 N           6.9563    1.3632    6.9335 N.1     1  LIG1       -0.1901
      9 N           6.6715    2.0082   13.7875 N.pl3   1  LIG1       -0.3299
     10 N          13.6513    4.7043   12.1299 N.pl3   1  LIG1       -0.3299
     11 C          11.5728   -0.9986   10.5677 C.2     1  LIG1        0.1364
     12 C          10.3526   -0.4499   10.2843 C.2     1  LIG1        0.0195
     13 C           9.9762   -0.3729    8.8278 C.2     1  LIG1        0.0220
     14 C          10.1678    0.9318    8.1643 C.2     1  LIG1        0.0220
     15 C           9.7503    2.1726    8.9050 C.2     1  LIG1        0.0195
     16 C           8.4679    2.5993    8.6295 C.2     1  LIG1        0.1364
     17 C          11.9656   -1.3535   11.8988 C.1     1  LIG1        0.1108
     18 C          12.5109   -1.3329    9.5278 C.1     1  LIG1        0.1108
     19 C           9.4666   -1.4766    8.2207 C.2     1  LIG1        0.1365
     20 C           9.4162   -2.7329    8.9327 C.1     1  LIG1        0.1108
     21 C           8.9409   -1.5039    6.8744 C.1     1  LIG1        0.1108
     22 C          10.7750    1.0645    6.9527 C.2     1  LIG1        0.1365
     23 C          11.3248   -0.0337    6.1914 C.1     1  LIG1        0.1108
     24 C          10.9386    2.3734    6.3752 C.1     1  LIG1        0.1108
     25 C           7.8598    3.7849    9.1411 C.1     1  LIG1        0.1108
     26 C           7.6373    1.8869    7.6972 C.1     1  LIG1        0.1108
     27 C           9.4087    0.0944   11.2321 C.ar    1  LIG1       -0.0152
     28 C           9.8310    0.7026   12.4332 C.ar    1  LIG1       -0.0522
     29 C           8.9463    1.3275   13.2709 C.ar    1  LIG1       -0.0401
     30 C           7.5550    1.3527   12.9834 C.ar    1  LIG1        0.0297
     31 C           7.1266    0.6866   11.8072 C.ar    1  LIG1       -0.0401
     32 C           8.0285    0.1110   10.9492 C.ar    1  LIG1       -0.0522
     33 C           7.1380    2.8945   14.8671 C.3     1  LIG1        0.0122
     34 C           7.7417    4.1955   14.3318 C.3     1  LIG1       -0.0372
     35 C           6.7959    5.0207   13.4751 C.3     1  LIG1       -0.0516
     36 C           7.4868    6.2332   12.8682 C.3     1  LIG1       -0.0533
     37 C           6.5825    7.1057   11.9969 C.3     1  LIG1       -0.0559
     38 C           7.3307    8.2195   11.2987 C.3     1  LIG1       -0.0653
     39 C           5.2241    1.8948   13.5526 C.3     1  LIG1        0.0122
     40 C           4.6760    0.5404   14.0618 C.3     1  LIG1       -0.0372
     41 C           3.2879    0.1900   13.5509 C.3     1  LIG1       -0.0516
     42 C           2.1787    1.0577   14.0716 C.3     1  LIG1       -0.0533
     43 C           0.7824    0.6356   13.5675 C.3     1  LIG1       -0.0559
     44 C          -0.2978    1.5282   14.0989 C.3     1  LIG1       -0.0653
     45 C          10.7159    2.7769    9.7824 C.ar    1  LIG1       -0.0152
     46 C          10.3712    3.7330   10.7770 C.ar    1  LIG1       -0.0522
     47 C          11.3089    4.3415   11.5663 C.ar    1  LIG1       -0.0401
     48 C          12.6984    4.0545   11.4169 C.ar    1  LIG1        0.0297
     49 C          13.0437    3.0379   10.4830 C.ar    1  LIG1       -0.0401
     50 C          12.0873    2.4373    9.7038 C.ar    1  LIG1       -0.0522
     51 C          15.0821    4.4319   11.9202 C.3     1  LIG1        0.0122
     52 C          15.6279    5.1549   10.6881 C.3     1  LIG1       -0.0372
     53 C          17.1277    4.9438   10.5051 C.3     1  LIG1       -0.0516
     54 C          17.6082    5.3618    9.1173 C.3     1  LIG1       -0.0533
     55 C          17.3271    6.8079    8.7222 C.3     1  LIG1       -0.0559
     56 C          18.0166    7.8339    9.5971 C.3     1  LIG1       -0.0653
     57 C          13.3655    5.8750   12.9821 C.3     1  LIG1        0.0122
     58 C          13.2728    5.5343   14.4709 C.3     1  LIG1       -0.0372
     59 C          12.0631    4.6682   14.8292 C.3     1  LIG1       -0.0516
     60 C          11.9948    4.3100   16.3086 C.3     1  LIG1       -0.0533
     61 C          10.8596    3.3516   16.6199 C.3     1  LIG1       -0.0559
     62 C          10.7195    3.0442   18.1057 C.3     1  LIG1       -0.0653
     63 H          10.7803    0.6765   12.6739 H       1  LIG1        0.0624
     64 H           9.2788    1.7647   14.0831 H       1  LIG1        0.0636
     65 H           6.1687    0.6371   11.6039 H       1  LIG1        0.0636
     66 H           7.7047   -0.2978   10.1195 H       1  LIG1        0.0624
     67 H           7.8799    2.3756   15.4555 H       1  LIG1        0.0464
     68 H           6.3066    3.1309   15.5154 H       1  LIG1        0.0464
     69 H           8.0636    4.7971   15.1685 H       1  LIG1        0.0280
     70 H           8.6166    3.9542   13.7469 H       1  LIG1        0.0280
     71 H           5.9649    5.3511   14.0801 H       1  LIG1        0.0266
     72 H           6.4034    4.4008   12.6816 H       1  LIG1        0.0266
     73 H           8.3185    5.8941   12.2702 H       1  LIG1        0.0265
     74 H           7.8857    6.8399   13.6671 H       1  LIG1        0.0265
     75 H           6.1050    6.4852   11.2539 H       1  LIG1        0.0263
     76 H           5.8087    7.5362   12.6156 H       1  LIG1        0.0263
     77 H           6.6382    8.8082   10.7151 H       1  LIG1        0.0230
     78 H           8.0806    7.7967   10.6475 H       1  LIG1        0.0230
     79 H           7.8080    8.8498   12.0353 H       1  LIG1        0.0230
     80 H           5.0253    1.9858   12.4958 H       1  LIG1        0.0464
     81 H           4.7146    2.6996   14.0601 H       1  LIG1        0.0464
     82 H           5.3606   -0.2408   13.7669 H       1  LIG1        0.0280
     83 H           4.6510    0.5627   15.1408 H       1  LIG1        0.0280
     84 H           3.2948    0.2518   12.4728 H       1  LIG1        0.0266
     85 H           3.0746   -0.8342   13.8160 H       1  LIG1        0.0266
     86 H           2.3639    2.0800   13.7730 H       1  LIG1        0.0265
     87 H           2.1852    1.0247   15.1516 H       1  LIG1        0.0265
     88 H           0.7694    0.6656   12.4881 H       1  LIG1        0.0263
     89 H           0.5861   -0.3810   13.8728 H       1  LIG1        0.0263
     90 H          -1.2521    1.2152   13.7009 H       1  LIG1        0.0230
     91 H          -0.1002    2.5485   13.8022 H       1  LIG1        0.0230
     92 H          -0.3196    1.4648   15.1761 H       1  LIG1        0.0230
     93 H           9.4274    3.9651   10.9024 H       1  LIG1        0.0624
     94 H          11.0210    4.9854   12.2456 H       1  LIG1        0.0636
     95 H          13.9805    2.7631   10.3943 H       1  LIG1        0.0636
     96 H          12.3646    1.7450    9.0679 H       1  LIG1        0.0624
     97 H          15.2281    3.3674   11.8020 H       1  LIG1        0.0464
     98 H          15.6351    4.7468   12.7921 H       1  LIG1        0.0464
     99 H          15.1112    4.7971    9.8109 H       1  LIG1        0.0280
    100 H          15.4291    6.2115   10.7811 H       1  LIG1        0.0280
    101 H          17.3595    3.9016   10.6598 H       1  LIG1        0.0266
    102 H          17.6592    5.5153   11.2508 H       1  LIG1        0.0266
    103 H          18.6738    5.1956    9.0633 H       1  LIG1        0.0265
    104 H          17.1434    4.7139    8.3879 H       1  LIG1        0.0265
    105 H          17.6423    6.9559    7.7001 H       1  LIG1        0.0263
    106 H          16.2619    6.9778    8.7624 H       1  LIG1        0.0263
    107 H          17.8031    8.8258    9.2260 H       1  LIG1        0.0230
    108 H          19.0830    7.6653    9.5776 H       1  LIG1        0.0230
    109 H          17.6565    7.7442   10.6107 H       1  LIG1        0.0230
    110 H          12.4322    6.3188   12.6662 H       1  LIG1        0.0464
    111 H          14.1445    6.6100   12.8397 H       1  LIG1        0.0464
    112 H          14.1722    5.0161   14.7663 H       1  LIG1        0.0280
    113 H          13.2240    6.4524   15.0364 H       1  LIG1        0.0280
    114 H          11.1613    5.1956   14.5544 H       1  LIG1        0.0266
    115 H          12.1004    3.7571   14.2505 H       1  LIG1        0.0266
    116 H          12.9298    3.8600   16.6069 H       1  LIG1        0.0265
    117 H          11.8638    5.2131   16.8862 H       1  LIG1        0.0265
    118 H          11.0251    2.4281   16.0849 H       1  LIG1        0.0263
    119 H           9.9345    3.7768   16.2615 H       1  LIG1        0.0263
    120 H           9.9628    2.2880   18.2464 H       1  LIG1        0.0230
    121 H          10.4338    3.9410   18.6332 H       1  LIG1        0.0230
    122 H          11.6636    2.6865   18.4889 H       1  LIG1        0.0230
@<TRIPOS>BOND
     1     5    23    3
     2     4    21    3
     3     6    24    3
     4    23    22    1
     5    24    22    1
     6    21    19    1
     7     8    26    3
     8    22    14    2
     9    26    16    1
    10   105    55    1
    11    14    13    1
    12    14    15    1
    13    19    13    2
    14    19    20    1
    15   104    54    1
    16    16    15    2
    17    16    25    1
    18     2    18    3
    19    55   106    1
    20    55    54    1
    21    55    56    1
    22    13    12    1
    23    15    45    1
    24    20     3    3
    25   103    54    1
    26    96    50    1
    27    54    53    1
    28    25     7    3
    29   107    56    1
    30    18    11    1
    31   108    56    1
    32    56   109    1
    33    50    45   ar
    34    50    49   ar
    35    45    46   ar
    36    99    52    1
    37    66    32    1
    38    12    11    2
    39    12    27    1
    40    95    49    1
    41    49    48   ar
    42    53   101    1
    43    53    52    1
    44    53   102    1
    45    11    17    1
    46    78    38    1
    47    52   100    1
    48    52    51    1
    49    77    38    1
    50    46    93    1
    51    46    47   ar
    52    32    27   ar
    53    32    31   ar
    54    27    28   ar
    55    75    37    1
    56    38    37    1
    57    38    79    1
    58    48    47   ar
    59    48    10    1
    60    47    94    1
    61    65    31    1
    62    97    51    1
    63    31    30   ar
    64    17     1    3
    65    51    10    1
    66    51    98    1
    67    37    76    1
    68    37    36    1
    69    10    57    1
    70    73    36    1
    71    28    63    1
    72    28    29   ar
    73    84    41    1
    74    88    43    1
    75    80    39    1
    76   110    57    1
    77    72    35    1
    78   111    57    1
    79    36    35    1
    80    36    74    1
    81    57    58    1
    82    30    29   ar
    83    30     9    1
    84    29    64    1
    85    35    71    1
    86    35    34    1
    87    41    85    1
    88    41    40    1
    89    41    42    1
    90    39     9    1
    91    39    81    1
    92    39    40    1
    93    43    89    1
    94    43    42    1
    95    43    44    1
    96    90    44    1
    97    70    34    1
    98    82    40    1
    99    86    42    1
   100     9    33    1
   101    91    44    1
   102    40    83    1
   103    42    87    1
   104    44    92    1
   105   115    59    1
   106    34    33    1
   107    34    69    1
   108    58   112    1
   109    58    59    1
   110    58   113    1
   111   114    59    1
   112    59    60    1
   113    33    67    1
   114    33    68    1
   115   118    61    1
   116   119    61    1
   117    60   116    1
   118    60    61    1
   119    60   117    1
   120    61    62    1
   121    62   120    1
   122    62   122    1
   123    62   121    1
