@<TRIPOS>MOLECULE
?
 138 144 0 0 0
SMALL
GASTEIGER

@<TRIPOS>ATOM
      1 C           6.2037    0.8404    2.0424 C.3     1  LIG1        0.0486
      2 H           7.1153    0.5554    1.7813 H       1  LIG1        0.0560
      3 H           5.5845    0.5835    1.3133 H       1  LIG1        0.0560
      4 C           5.7991    0.1213    3.3200 C.3     1  LIG1       -0.0256
      5 H           4.8473    0.3058    3.5201 H       1  LIG1        0.0290
      6 H           5.9058   -0.8541    3.2016 H       1  LIG1        0.0290
      7 C           6.6673    0.5961    4.4712 C.3     1  LIG1       -0.0235
      8 H           7.6113    0.3058    4.3079 H       1  LIG1        0.0312
      9 C           6.2581    0.1870    5.8833 C.3     1  LIG1       -0.0094
     10 H           5.2800    0.3691    5.9857 H       1  LIG1        0.0353
     11 C           7.0238    1.1909    6.7619 C.3     1  LIG1       -0.0061
     12 H           7.8935    0.8084    7.0402 H       1  LIG1        0.0304
     13 H           6.4993    1.4025    7.5750 H       1  LIG1        0.0304
     14 C           7.2475    2.4812    5.9121 C.3     1  LIG1        0.1682
     15 C           6.6222    2.1276    4.5425 C.3     1  LIG1        0.0303
     16 H           5.6529    2.3550    4.6310 H       1  LIG1        0.0365
     17 C           7.0732    2.8004    3.2384 C.3     1  LIG1        0.0702
     18 C           6.7813    4.2851    3.2453 C.3     1  LIG1       -0.0357
     19 H           5.8469    4.4324    3.4960 H       1  LIG1        0.0257
     20 H           6.9425    4.6538    2.3517 H       1  LIG1        0.0257
     21 H           7.3682    4.7311    3.8927 H       1  LIG1        0.0257
     22 C           8.5289    2.5420    2.8336 C.3     1  LIG1       -0.0357
     23 H           8.7234    3.0123    1.9964 H       1  LIG1        0.0257
     24 H           8.6670    1.5817    2.7059 H       1  LIG1        0.0257
     25 H           9.1268    2.8682    3.5385 H       1  LIG1        0.0257
     26 C           6.5391    3.6787    6.5457 C.2     1  LIG1        0.3393
     27 C           4.4658    4.4541    7.3795 C.3     1  LIG1        0.0818
     28 H           3.5352    4.1582    7.4623 H       1  LIG1        0.0661
     29 H           4.5031    5.2759    6.8459 H       1  LIG1        0.0661
     30 H           4.8337    4.6257    8.2719 H       1  LIG1        0.0661
     31 C           6.4978   -1.2728    6.2076 C.ar    1  LIG1       -0.0439
     32 C           5.4261   -2.1125    6.4710 C.ar    1  LIG1       -0.0583
     33 H           4.5448   -1.7575    6.4652 H       1  LIG1        0.0620
     34 C           5.6146   -3.4580    6.7412 C.ar    1  LIG1       -0.0615
     35 H           4.8664   -4.0106    6.9298 H       1  LIG1        0.0618
     36 C           6.8835   -3.9976    6.7378 C.ar    1  LIG1       -0.0617
     37 H           7.0107   -4.9209    6.9126 H       1  LIG1        0.0618
     38 C           7.9697   -3.1810    6.4779 C.ar    1  LIG1       -0.0615
     39 H           8.8491   -3.5431    6.4790 H       1  LIG1        0.0618
     40 C           7.7698   -1.8236    6.2122 C.ar    1  LIG1       -0.0583
     41 H           8.5197   -1.2689    6.0317 H       1  LIG1        0.0620
     42 O           6.1822    2.2707    2.2034 O.3     1  LIG1       -0.3735
     43 O           8.6270    2.7638    5.7757 O.3     1  LIG1       -0.3770
     44 H           8.9369    3.0088    6.5170 H       1  LIG1        0.2109
     45 O           7.0632    4.7072    6.8735 O.2     1  LIG1       -0.2476
     46 O           5.2444    3.4197    6.7274 O.3     1  LIG1       -0.4659
     47 C           2.3655    4.9642   -3.5454 C.3     2  LIG2        0.0486
     48 H           1.8357    5.3216   -4.3021 H       2  LIG2        0.0560
     49 H           3.3216    4.9947   -3.8019 H       2  LIG2        0.0560
     50 C           2.1441    5.8390   -2.3184 C.3     2  LIG2       -0.0256
     51 H           1.1754    5.9051   -2.1217 H       2  LIG2        0.0290
     52 H           2.4871    6.7522   -2.4897 H       2  LIG2        0.0290
     53 C           2.8739    5.2264   -1.1258 C.3     2  LIG2       -0.0235
     54 H           3.8566    5.2443   -1.3110 H       2  LIG2        0.0312
     55 C           2.6245    5.8584    0.2495 C.3     2  LIG2       -0.0094
     56 H           1.6840    6.1933    0.2748 H       2  LIG2        0.0353
     57 C           2.7482    4.6756    1.2546 C.3     2  LIG2       -0.0061
     58 H           3.4946    4.8366    1.8848 H       2  LIG2        0.0304
     59 H           1.9126    4.5765    1.7744 H       2  LIG2        0.0304
     60 C           3.0164    3.3912    0.4186 C.3     2  LIG2        0.1682
     61 C           2.4350    3.7708   -0.9579 C.3     2  LIG2        0.0303
     62 H           1.4412    3.7926   -0.8429 H       2  LIG2        0.0365
     63 C           2.6979    2.9262   -2.2080 C.3     2  LIG2        0.0702
     64 C           2.0210    1.5684   -2.1275 C.3     2  LIG2       -0.0357
     65 H           1.0764    1.6872   -1.8917 H       2  LIG2        0.0257
     66 H           2.4615    1.0229   -1.4432 H       2  LIG2        0.0257
     67 H           2.0863    1.1178   -2.9957 H       2  LIG2        0.0257
     68 C           4.1684    2.7483   -2.5875 C.3     2  LIG2       -0.0357
     69 H           4.2328    2.1898   -3.3890 H       2  LIG2        0.0257
     70 H           4.6463    2.3164   -1.8480 H       2  LIG2        0.0257
     71 H           4.5667    3.6239   -2.7669 H       2  LIG2        0.0257
     72 C           2.3394    2.1733    1.0465 C.2     2  LIG2        0.3393
     73 C           0.2374    1.2640    1.6663 C.3     2  LIG2        0.0818
     74 H          -0.7158    1.4903    1.6353 H       2  LIG2        0.0661
     75 H           0.5124    1.1353    2.5990 H       2  LIG2        0.0661
     76 H           0.3927    0.4359    1.1649 H       2  LIG2        0.0661
     77 C           3.5512    7.0183    0.5278 C.ar    2  LIG2       -0.0439
     78 C           3.0653    8.3055    0.7268 C.ar    2  LIG2       -0.0583
     79 H           2.1281    8.4605    0.7337 H       2  LIG2        0.0620
     80 C           3.9461    9.3793    0.9177 C.ar    2  LIG2       -0.0615
     81 H           3.6090   10.2566    1.0637 H       2  LIG2        0.0618
     82 C           5.3030    9.1547    0.8935 C.ar    2  LIG2       -0.0617
     83 H           5.9014    9.8840    1.0016 H       2  LIG2        0.0618
     84 C           5.8009    7.8812    0.7141 C.ar    2  LIG2       -0.0615
     85 H           6.7392    7.7329    0.7141 H       2  LIG2        0.0618
     86 C           4.9332    6.8292    0.5370 C.ar    2  LIG2       -0.0583
     87 H           5.2822    5.9543    0.4174 H       2  LIG2        0.0620
     88 O           1.9856    3.6018   -3.3031 O.3     2  LIG2       -0.3735
     89 O           4.3995    3.1603    0.2700 O.3     2  LIG2       -0.3770
     90 H           4.7186    2.8928    0.9993 H       2  LIG2        0.2109
     91 O           2.9036    1.2144    1.4743 O.2     2  LIG2       -0.2476
     92 O           1.0089    2.3367    1.0794 O.3     2  LIG2       -0.4659
     93 C          10.6449    6.7958    3.6765 C.3     3  LIG3        0.0486
     94 H           9.6807    6.7839    3.9031 H       3  LIG3        0.0560
     95 H          11.1438    6.4394    4.4539 H       3  LIG3        0.0560
     96 C          10.8882    5.8984    2.4656 C.3     3  LIG3       -0.0256
     97 H          10.5201    4.9947    2.6358 H       3  LIG3        0.0290
     98 H          11.8609    5.8102    2.3034 H       3  LIG3        0.0290
     99 C          10.2106    6.5129    1.2408 C.3     3  LIG3       -0.0235
    100 H           9.2203    6.4991    1.3788 H       3  LIG3        0.0312
    101 C          10.5302    5.8833   -0.1173 C.3     3  LIG3       -0.0094
    102 H          11.4896    5.5993   -0.1058 H       3  LIG3        0.0353
    103 C          10.3891    7.0492   -1.1408 C.3     3  LIG3       -0.0061
    104 H           9.6242    6.8858   -1.7480 H       3  LIG3        0.0304
    105 H          11.2119    7.1318   -1.6847 H       3  LIG3        0.0304
    106 C          10.1513    8.3480   -0.3082 C.3     3  LIG3        0.1682
    107 C          10.6682    7.9649    1.0879 C.3     3  LIG3        0.0303
    108 H          11.6655    7.9332    1.0120 H       3  LIG3        0.0365
    109 C          10.3682    8.8194    2.3299 C.3     3  LIG3        0.0702
    110 C          11.0522   10.1723    2.2436 C.3     3  LIG3       -0.0357
    111 H          10.8364   10.6995    3.0406 H       3  LIG3        0.0257
    112 H          10.7402   10.6468    1.4444 H       3  LIG3        0.0257
    113 H          12.0230   10.0457    2.1896 H       3  LIG3        0.0257
    114 C           8.8980    9.0064    2.6864 C.3     3  LIG3       -0.0357
    115 H           8.8245    9.5747    3.4799 H       3  LIG3        0.0257
    116 H           8.4939    8.1336    2.8715 H       3  LIG3        0.0257
    117 H           8.4317    9.4306    1.9354 H       3  LIG3        0.0257
    118 C          10.8811    9.5262   -0.9568 C.2     3  LIG3        0.3393
    119 C          13.0156   10.3733   -1.5467 C.3     3  LIG3        0.0818
    120 H          13.9652   10.1477   -1.4513 H       3  LIG3        0.0661
    121 H          12.8424   11.2408   -1.1235 H       3  LIG3        0.0661
    122 H          12.7869   10.4253   -2.4989 H       3  LIG3        0.0661
    123 C           9.6926    4.6664   -0.4450 C.ar    3  LIG3       -0.0439
    124 C          10.2811    3.4323   -0.6969 C.ar    3  LIG3       -0.0583
    125 H          11.2276    3.3462   -0.6704 H       3  LIG3        0.0620
    126 C           9.4949    2.3156   -0.9901 C.ar    3  LIG3       -0.0615
    127 H           9.9063    1.4798   -1.1753 H       3  LIG3        0.0618
    128 C           8.1269    2.4257   -1.0108 C.ar    3  LIG3       -0.0617
    129 H           7.5931    1.6591   -1.1902 H       3  LIG3        0.0618
    130 C           7.5205    3.6506   -0.7693 C.ar    3  LIG3       -0.0615
    131 H           6.5743    3.7294   -0.7935 H       3  LIG3        0.0618
    132 C           8.3002    4.7547   -0.4945 C.ar    3  LIG3       -0.0583
    133 H           7.8818    5.5923   -0.3358 H       3  LIG3        0.0620
    134 O          11.0540    8.1459    3.4316 O.3     3  LIG3       -0.3735
    135 O           8.7728    8.6419   -0.2161 O.3     3  LIG3       -0.3770
    136 H           8.4809    8.8577   -0.9729 H       3  LIG3        0.2109
    137 O          10.3545   10.4608   -1.4708 O.2     3  LIG3       -0.2476
    138 O          12.2088    9.3519   -0.9085 O.3     3  LIG3       -0.4659
@<TRIPOS>BOND
     1    48    47    1
     2    49    47    1
     3    47    88    1
     4    47    50    1
     5    69    68    1
     6    88    63    1
     7    67    64    1
     8    71    68    1
     9    68    63    1
    10    68    70    1
    11   122   119    1
    12    52    50    1
    13    50    51    1
    14    50    53    1
    15    63    64    1
    16    63    61    1
    17    64    65    1
    18    64    66    1
    19   104   103    1
    20   105   103    1
    21   119   120    1
    22   119   121    1
    23   119   138    1
    24   137   118    2
    25    54    53    1
    26   129   128    1
    27   127   126    1
    28   103   106    1
    29   103   101    1
    30    53    61    1
    31    53    55    1
    32   128   126   ar
    33   128   130   ar
    34   126   124   ar
    35   136   135    1
    36    61    62    1
    37    61    60    1
    38   118   138    1
    39   118   106    1
    40   131   130    1
    41   130   132   ar
    42   124   125    1
    43   124   123   ar
    44   132   123   ar
    45   132   133    1
    46   123   101    1
    47   106   135    1
    48   106   107    1
    49   101   102    1
    50   101    99    1
    51    55    56    1
    52    55    77    1
    53    55    57    1
    54    89    60    1
    55    89    90    1
    56    87    86    1
    57    60    72    1
    58    60    57    1
    59    77    86   ar
    60    77    78   ar
    61    86    84   ar
    62    84    85    1
    63    84    82   ar
    64    78    79    1
    65    78    80   ar
    66    82    80   ar
    67    82    83    1
    68    80    81    1
    69   108   107    1
    70    72    92    1
    71    72    91    2
    72    92    73    1
    73   107    99    1
    74   107   109    1
    75    76    73    1
    76    99   100    1
    77    99    96    1
    78    57    59    1
    79    57    58    1
    80     3     1    1
    81   112   110    1
    82    74    73    1
    83    73    75    1
    84     2     1    1
    85   117   114    1
    86    23    22    1
    87     1    42    1
    88     1     4    1
    89   113   110    1
    90    42    17    1
    91   110   109    1
    92   110   111    1
    93    98    96    1
    94   109   114    1
    95   109   134    1
    96    20    18    1
    97    96    97    1
    98    96    93    1
    99   114   116    1
   100   114   115    1
   101    24    22    1
   102    22    17    1
   103    22    25    1
   104     6     4    1
   105    17    18    1
   106    17    15    1
   107    18    19    1
   108    18    21    1
   109     4     5    1
   110     4     7    1
   111   134    93    1
   112    93    94    1
   113    93    95    1
   114     8     7    1
   115     7    15    1
   116     7     9    1
   117    15    16    1
   118    15    14    1
   119    43    14    1
   120    43    44    1
   121     9    10    1
   122     9    31    1
   123     9    11    1
   124    14    26    1
   125    14    11    1
   126    41    40    1
   127    31    40   ar
   128    31    32   ar
   129    40    38   ar
   130    33    32    1
   131    32    34   ar
   132    38    39    1
   133    38    36   ar
   134    26    46    1
   135    26    45    2
   136    46    27    1
   137    36    34   ar
   138    36    37    1
   139    34    35    1
   140    11    12    1
   141    11    13    1
   142    29    27    1
   143    27    28    1
   144    27    30    1
