@<TRIPOS>MOLECULE
?
 18 18 0 0 0
SMALL
GASTEIGER

@<TRIPOS>ATOM
      1 BR          6.6781    2.0661    3.3013 Br      1  LIG1       -0.0277
      2 O           5.0284   -0.0106    2.4017 O.3     1  LIG1       -0.4330
      3 O           4.0212    2.2280    1.1237 O.3     1  LIG1       -0.4468
      4 O           5.8562    2.2936   -0.0961 O.2     1  LIG1       -0.2453
      5 O           3.0674   -0.3374    3.3359 O.2     1  LIG1       -0.2466
      6 C           5.2867    1.8784    0.8752 C.2     1  LIG1        0.3632
      7 C           5.9437    0.9122    1.8499 C.3     1  LIG1        0.2598
      8 C           3.7913    0.4326    2.7533 C.2     1  LIG1        0.3499
      9 C           3.4575    1.8631    2.4237 C.3     1  LIG1        0.1963
     10 H           3.8463    2.4591    3.1261 H       1  LIG1        0.0850
     11 C           7.0791    0.1211    1.2400 C.3     1  LIG1       -0.0037
     12 H           6.7246   -0.4855    0.5570 H       1  LIG1        0.0282
     13 H           7.5271   -0.3998    1.9390 H       1  LIG1        0.0282
     14 H           7.7217    0.7361    0.8293 H       1  LIG1        0.0282
     15 C           1.9635    2.0820    2.3620 C.3     1  LIG1       -0.0170
     16 H           1.7791    2.9885    2.0368 H       1  LIG1        0.0271
     17 H           1.5803    1.9720    3.2574 H       1  LIG1        0.0271
     18 H           1.5619    1.4284    1.7521 H       1  LIG1        0.0271
@<TRIPOS>BOND
     1     4     6    2
     2    12    11    1
     3    14    11    1
     4     6     3    1
     5     6     7    1
     6     3     9    1
     7    11     7    1
     8    11    13    1
     9    18    15    1
    10     7     2    1
    11     7     1    1
    12    16    15    1
    13    15     9    1
    14    15    17    1
    15     2     8    1
    16     9     8    1
    17     9    10    1
    18     8     5    2
