@<TRIPOS>MOLECULE
?
 39 42 0 0 0
SMALL
GASTEIGER

@<TRIPOS>ATOM
      1 N           0.9909    6.6136    3.2483 N.2     1  LIG1       -0.2844
      2 C           1.1837    7.6942    4.2313 C.3     1  LIG1        0.0626
      3 C           2.4602    7.3622    5.0258 C.3     1  LIG1       -0.0248
      4 C           2.8125    8.5281    5.9647 C.3     1  LIG1       -0.0384
      5 C           3.0386    9.8040    5.1417 C.3     1  LIG1       -0.0472
      6 C           1.7685   10.1473    4.3565 C.3     1  LIG1       -0.0384
      7 C           1.4258    8.9800    3.4220 C.3     1  LIG1       -0.0248
      8 C           0.0320    7.9374    5.2131 C.3     1  LIG1       -0.0248
      9 C           0.3894    9.0998    6.1629 C.3     1  LIG1       -0.0384
     10 C           0.6149   10.3771    5.3404 C.3     1  LIG1       -0.0472
     11 C           1.6602    8.7523    6.9445 C.3     1  LIG1       -0.0472
     12 C          -0.1422    6.0546    3.1310 C.2     1  LIG1        0.0299
     13 C          -0.4099    5.0099    2.1215 C.ar    1  LIG1       -0.0074
     14 C           0.5444    4.6285    1.1773 C.ar    1  LIG1       -0.0532
     15 C           0.2376    3.6515    0.2378 C.ar    1  LIG1       -0.0612
     16 C          -1.0101    3.0516    0.2375 C.ar    1  LIG1       -0.0617
     17 C          -1.9606    3.4224    1.1691 C.ar    1  LIG1       -0.0612
     18 C          -1.6673    4.3987    2.1068 C.ar    1  LIG1       -0.0532
     19 H           2.2931    6.5205    5.5206 H       1  LIG1        0.0291
     20 H           3.2154    7.1620    4.3829 H       1  LIG1        0.0291
     21 H           3.6638    8.2969    6.4730 H       1  LIG1        0.0302
     22 H           3.3115   10.5668    5.7998 H       1  LIG1        0.0271
     23 H           3.7919    9.7138    4.5417 H       1  LIG1        0.0271
     24 H           1.9344   10.9897    3.8068 H       1  LIG1        0.0302
     25 H           2.1586    8.8256    2.7926 H       1  LIG1        0.0291
     26 H           0.5765    9.1992    2.8984 H       1  LIG1        0.0291
     27 H          -0.1345    7.0774    5.7557 H       1  LIG1        0.0291
     28 H          -0.8263    8.0995    4.7004 H       1  LIG1        0.0291
     29 H          -0.3459    9.2626    6.7934 H       1  LIG1        0.0302
     30 H           0.8519   11.2012    5.9262 H       1  LIG1        0.0271
     31 H          -0.2242   10.6513    4.8797 H       1  LIG1        0.0271
     32 H           1.5116    7.9022    7.5077 H       1  LIG1        0.0271
     33 H           1.8767    9.5235    7.5489 H       1  LIG1        0.0271
     34 H          -0.9480    6.3161    3.6863 H       1  LIG1        0.0831
     35 H           1.4348    5.0825    1.1229 H       1  LIG1        0.0624
     36 H           0.9288    3.4612   -0.4645 H       1  LIG1        0.0618
     37 H          -1.2426    2.4179   -0.4086 H       1  LIG1        0.0618
     38 H          -2.8695    3.0030    1.1758 H       1  LIG1        0.0618
     39 H          -2.3251    4.7300    2.7250 H       1  LIG1        0.0624
@<TRIPOS>BOND
     1    36    15    1
     2    37    16    1
     3    16    15   ar
     4    16    17   ar
     5    15    14   ar
     6    35    14    1
     7    17    38    1
     8    17    18   ar
     9    14    13   ar
    10    18    13   ar
    11    18    39    1
    12    13    12    1
    13    25     7    1
    14    26     7    1
    15    12     1    2
    16    12    34    1
    17     1     2    1
    18     7     2    1
    19     7     6    1
    20    24     6    1
    21     2     3    1
    22     2     8    1
    23     6     5    1
    24     6    10    1
    25    20     3    1
    26    23     5    1
    27    28     8    1
    28    31    10    1
    29     3    19    1
    30     3     4    1
    31     5    22    1
    32     5     4    1
    33     8    27    1
    34     8     9    1
    35    10    30    1
    36    10     9    1
    37     4    21    1
    38     4    11    1
    39     9    29    1
    40     9    11    1
    41    11    32    1
    42    11    33    1
