@<TRIPOS>MOLECULE
?
 16 16 0 0 0
SMALL
GASTEIGER

@<TRIPOS>ATOM
      1 O           3.7139    3.9758    2.6355 O.3     1  LIG1       -0.4166
      2 O           1.3726    4.2021    1.1122 O.3     1  LIG1       -0.4446
      3 O           2.1580    6.0101    0.1432 O.2     1  LIG1       -0.2415
      4 O           3.0223    2.0842    3.4850 O.2     1  LIG1       -0.2462
      5 C           2.2865    5.1658    0.9877 C.2     1  LIG1        0.3751
      6 C           3.4709    5.1293    1.8961 C.2     1  LIG1        0.2082
      7 C           2.7631    3.0423    2.8091 C.2     1  LIG1        0.3535
      8 C           1.3885    3.2693    2.2187 C.3     1  LIG1        0.1970
      9 H           0.8146    3.6552    2.9415 H       1  LIG1        0.0850
     10 C           4.3193    6.1246    1.9923 C.2     1  LIG1       -0.0489
     11 H           5.0795    6.0480    2.5566 H       1  LIG1        0.0573
     12 H           4.1740    6.9225    1.4973 H       1  LIG1        0.0573
     13 C           0.7388    1.9907    1.7660 C.3     1  LIG1       -0.0170
     14 H          -0.1318    2.1917    1.3626 H       1  LIG1        0.0271
     15 H           0.6129    1.3981    2.5358 H       1  LIG1        0.0271
     16 H           1.3113    1.5500    1.1039 H       1  LIG1        0.0271
@<TRIPOS>BOND
     1     3     5    2
     2     5     2    1
     3     5     6    1
     4    16    13    1
     5     2     8    1
     6    14    13    1
     7    12    10    1
     8    13     8    1
     9    13    15    1
    10     6    10    2
    11     6     1    1
    12    10    11    1
    13     8     7    1
    14     8     9    1
    15     1     7    1
    16     7     4    2
