@<TRIPOS>MOLECULE
?
 78 78 0 0 0
SMALL
GASTEIGER

@<TRIPOS>ATOM
      1 O           5.0910    4.4945   11.0892 O.2     1  LIG1       -0.2451
      2 O           5.5878    1.1517   14.6527 O.2     2  LIG2       -0.2451
      3 C           5.5579    5.5261   10.6296 C.2     1  LIG1        0.3368
      4 N           4.1323   -0.0427    8.5310 N.am    2  LIG2       -0.2857
      5 H           4.0474    0.7408    8.1862 H       2  LIG2        0.1548
      6 C           4.8408   -1.1685   11.9757 C.ar    2  LIG2       -0.0460
      7 H           4.8976   -1.9565   12.4681 H       2  LIG2        0.0626
      8 O           5.4623   -1.0709   14.6249 O.3     2  LIG2       -0.4771
      9 H           5.7397   -0.9867   15.3914 H       2  LIG2        0.2954
     10 C           5.3948    0.1078   14.0516 C.2     2  LIG2        0.3368
     11 C           6.6679    5.5407    9.6447 C.ar    1  LIG1        0.0589
     12 N           9.8048    5.5519    6.8819 N.am    1  LIG1       -0.2857
     13 H          10.0592    6.3432    6.6609 H       1  LIG1        0.1548
     14 C           5.0642    0.0393   12.6070 C.ar    2  LIG2        0.0589
     15 C           7.1381    6.7260    9.0941 C.ar    1  LIG1       -0.0460
     16 H           6.7579    7.5376    9.3454 H       1  LIG1        0.0626
     17 O           5.1310    6.7159   10.9617 O.3     1  LIG1       -0.4771
     18 H           4.4815    6.6452   11.4567 H       1  LIG1        0.2954
     19 C           7.2347    4.3519    9.2482 C.ar    1  LIG1       -0.0460
     20 H           6.9153    3.5561    9.6068 H       1  LIG1        0.0626
     21 C           4.9975    1.2067   11.8595 C.ar    2  LIG2       -0.0460
     22 H           5.1568    2.0284   12.2661 H       2  LIG2        0.0626
     23 O           5.0782    4.4081    6.2404 O.2     3  LIG3       -0.2703
     24 C           1.8300    5.5867    9.5197 C.ar    3  LIG3       -0.0608
     25 H           1.4121    6.2400   10.0323 H       3  LIG3        0.0618
     26 C           8.2638    4.3059    8.3327 C.ar    1  LIG1       -0.0397
     27 H           8.6297    3.4910    8.0751 H       1  LIG1        0.0636
     28 C           4.5338   -1.2325   10.6258 C.ar    2  LIG2       -0.0397
     29 H           4.3819   -2.0542   10.2167 H       2  LIG2        0.0636
     30 C           4.4569   -0.0629    9.8934 C.ar    2  LIG2        0.0334
     31 C           8.1654    6.7013    8.1774 C.ar    1  LIG1       -0.0397
     32 H           8.4718    7.4972    7.8087 H       1  LIG1        0.0636
     33 N           4.8318    6.5868    6.6179 N.am    3  LIG3       -0.3252
     34 H           5.4359    6.7619    6.0320 H       3  LIG3        0.1453
     35 H           4.4439    7.2278    7.0410 H       3  LIG3        0.1453
     36 C           8.7478    5.4958    7.7999 C.ar    1  LIG1        0.0334
     37 C           3.9301   -1.0754    7.6761 C.2     2  LIG2        0.2141
     38 C           4.6962    1.1528   10.5223 C.ar    2  LIG2       -0.0397
     39 H           4.6539    1.9397   10.0286 H       2  LIG2        0.0636
     40 C          10.4860    4.5383    6.2922 C.2     1  LIG1        0.2141
     41 C           2.7988    5.9290    8.6130 C.ar    3  LIG3       -0.0461
     42 H           3.0172    6.8259    8.5070 H       3  LIG3        0.0626
     43 C           3.1067    3.6470    8.0246 C.ar    3  LIG3        0.1289
     44 O           4.0423   -2.2472    7.9968 O.2     2  LIG2       -0.2758
     45 C           3.4661    4.9817    7.8478 C.ar    3  LIG3        0.0778
     46 O          10.2368    3.3507    6.4866 O.2     1  LIG1       -0.2758
     47 C           4.4993    5.3386    6.8692 C.2     3  LIG3        0.2451
     48 O           3.7114    2.6334    7.3427 O.3     3  LIG3       -0.5060
     49 H           4.2782    2.9432    6.8389 H       3  LIG3        0.2922
     50 C           3.5369   -0.6814    6.2846 C.3     2  LIG2        0.0125
     51 H           2.7091   -1.1090    6.0522 H       2  LIG2        0.0323
     52 H           4.2212   -0.9541    5.6684 H       2  LIG2        0.0323
     53 H           3.4276    0.2716    6.2404 H       2  LIG2        0.0323
     54 C          11.6121    4.9469    5.3880 C.3     1  LIG1        0.0125
     55 H          11.5071    4.5214    4.5344 H       1  LIG1        0.0323
     56 H          12.4476    4.6797    5.7782 H       1  LIG1        0.0323
     57 H          11.6022    5.8999    5.2744 H       1  LIG1        0.0323
     58 C           2.1209    3.2900    8.9237 C.ar    3  LIG3       -0.0194
     59 H           1.8908    2.3954    9.0323 H       3  LIG3        0.0654
     60 C           1.4809    4.2599    9.6611 C.ar    3  LIG3       -0.0583
     61 H           0.8096    4.0185   10.2571 H       3  LIG3        0.0619
     62 O          -0.4483   -1.2056    4.4536 O.2     4  LIG4       -0.2703
     63 C          -0.3628   -0.2739    5.3009 C.2     4  LIG4        0.2451
     64 C           0.2564   -0.0247    9.0121 C.ar    4  LIG4       -0.0608
     65 H           0.3022    0.6308    9.6699 H       4  LIG4        0.0618
     66 O          -0.0177   -2.9802    6.1596 O.3     4  LIG4       -0.5060
     67 H          -0.1745   -2.6727    5.4158 H       4  LIG4        0.2922
     68 N          -0.5108    0.9743    4.9095 N.am    4  LIG4       -0.3252
     69 H          -0.6630    1.1494    4.0811 H       4  LIG4        0.1453
     70 H          -0.4532    1.6142    5.4802 H       4  LIG4        0.1453
     71 C          -0.0994   -0.6308    6.7051 C.ar    4  LIG4        0.0778
     72 C           0.0763   -1.9666    7.0574 C.ar    4  LIG4        0.1289
     73 C           0.0016    0.3177    7.7089 C.ar    4  LIG4       -0.0461
     74 H          -0.1065    1.2157    7.4930 H       4  LIG4        0.0626
     75 C           0.3528   -2.3202    8.3706 C.ar    4  LIG4       -0.0194
     76 H           0.4761   -3.2137    8.5966 H       4  LIG4        0.0654
     77 C           0.4430   -1.3459    9.3341 C.ar    4  LIG4       -0.0583
     78 H           0.6331   -1.5838   10.2129 H       4  LIG4        0.0619
@<TRIPOS>BOND
     1    69    68    1
     2    62    63    2
     3    55    54    1
     4    68    63   am
     5    68    70    1
     6    57    54    1
     7    63    71    1
     8    54    56    1
     9    54    40    1
    10    67    66    1
    11    52    50    1
    12    34    33    1
    13    51    50    1
    14    66    72    1
    15    23    47    2
    16    53    50    1
    17    50    37    1
    18    40    46    2
    19    40    12   am
    20    33    47   am
    21    33    35    1
    22    13    12    1
    23    71    72   ar
    24    71    73   ar
    25    49    48    1
    26    47    45    1
    27    12    36    1
    28    72    75   ar
    29    48    43    1
    30    74    73    1
    31    37    44    2
    32    37     4   am
    33    73    64   ar
    34    36    31   ar
    35    36    26   ar
    36    32    31    1
    37    45    43   ar
    38    45    41   ar
    39    43    58   ar
    40    27    26    1
    41    31    15   ar
    42     5     4    1
    43    26    19   ar
    44    75    76    1
    45    75    77   ar
    46    42    41    1
    47     4    30    1
    48    41    24   ar
    49    58    59    1
    50    58    60   ar
    51    64    77   ar
    52    64    65    1
    53    15    16    1
    54    15    11   ar
    55    19    20    1
    56    19    11   ar
    57    77    78    1
    58    24    60   ar
    59    24    25    1
    60    11     3    1
    61    60    61    1
    62    30    38   ar
    63    30    28   ar
    64    39    38    1
    65    29    28    1
    66    38    21   ar
    67    28     6   ar
    68     3    17    1
    69     3     1    2
    70    17    18    1
    71    21    22    1
    72    21    14   ar
    73     6     7    1
    74     6    14   ar
    75    14    10    1
    76    10     8    1
    77    10     2    2
    78     8     9    1
