@<TRIPOS>MOLECULE
Ganodermalactone C
 84 88 0 0 0
SMALL
GASTEIGER

@<TRIPOS>ATOM
      1 C           5.3472    1.2742    2.5110 C.3     1  LIG1       -0.0301
      2 H           4.6005    1.0395    3.0673 H       1  LIG1        0.0280
      3 H           5.8919    1.9225    2.9639 H       1  LIG1        0.0280
      4 C           4.7237    2.0078    1.3157 C.3     1  LIG1        0.0459
      5 H           4.2123    2.7577    1.6294 H       1  LIG1        0.0378
      6 H           5.4269    2.3198    0.7417 H       1  LIG1        0.0378
      7 C           6.1948   -0.0051    2.2182 C.3     1  LIG1        0.0330
      8 C           3.8168    1.1553    0.4836 C.2     1  LIG1        0.3076
      9 O           2.6319    1.3799    0.3417 O.2     1  LIG1       -0.2508
     10 C           5.7307   -0.2063   -0.4019 C.3     1  LIG1        0.1117
     11 O           4.3024    0.0386   -0.0882 O.3     1  LIG1       -0.4583
     12 C           6.7340    0.1087    0.7542 C.3     1  LIG1        0.0112
     13 H           6.9109    1.0466    0.6597 H       1  LIG1        0.0349
     14 C           8.0217   -0.6706    0.5566 C.3     1  LIG1       -0.0420
     15 H           7.8809   -1.5861    0.8056 H       1  LIG1        0.0272
     16 H           8.2885   -0.6259   -0.3648 H       1  LIG1        0.0272
     17 C           9.1028   -0.0721    1.4443 C.3     1  LIG1       -0.0305
     18 H           9.3011    0.8169    1.1430 H       1  LIG1        0.0310
     19 H           9.8912   -0.6158    1.3801 H       1  LIG1        0.0310
     20 C           8.6470   -0.0183    2.8818 C.2     1  LIG1       -0.0632
     21 C           7.3575   -0.0224    3.2378 C.2     1  LIG1       -0.0600
     22 C           9.3400   -0.5172    5.2806 C.3     1  LIG1       -0.0195
     23 C           8.0300    0.1158    5.7503 C.3     1  LIG1       -0.0429
     24 H           8.1699    1.0537    5.9035 H       1  LIG1        0.0274
     25 H           7.7669   -0.3069    6.5723 H       1  LIG1        0.0274
     26 C           6.9248   -0.0935    4.6973 C.3     1  LIG1       -0.0303
     27 H           6.2838    0.6015    4.8638 H       1  LIG1        0.0310
     28 H           6.5274   -0.9470    4.8851 H       1  LIG1        0.0310
     29 C           9.1130   -2.0312    5.0867 C.3     1  LIG1       -0.0585
     30 H           9.9255   -2.4458    4.7878 H       1  LIG1        0.0235
     31 H           8.4228   -2.1694    4.4322 H       1  LIG1        0.0235
     32 H           8.8443   -2.4214    5.9217 H       1  LIG1        0.0235
     33 C          11.1094   -0.4603    3.6555 C.3     1  LIG1       -0.0431
     34 H          11.6495    0.0732    3.0673 H       1  LIG1        0.0274
     35 H          11.0501   -1.3545    3.3135 H       1  LIG1        0.0274
     36 C           5.3101   -1.2376    2.4778 C.3     1  LIG1        0.1021
     37 H           4.6524   -1.3291    1.7844 H       1  LIG1        0.0706
     38 H           4.8710   -1.1573    3.3287 H       1  LIG1        0.0706
     39 O           6.1615   -2.4170    2.4915 O.3     1  LIG1       -0.4639
     40 C          10.6379   -0.2916    6.1154 C.3     1  LIG1       -0.0289
     41 H          10.6212    0.6381    6.3534 H       1  LIG1        0.0310
     42 C          11.7690   -0.5121    5.0532 C.3     1  LIG1       -0.0485
     43 H          12.4221    0.1880    5.1314 H       1  LIG1        0.0268
     44 H          12.1905   -1.3616    5.2043 H       1  LIG1        0.0268
     45 C           9.9505    1.6877    4.0431 C.3     1  LIG1       -0.0553
     46 H          10.6332    1.8656    4.6936 H       1  LIG1        0.0238
     47 H           9.1334    2.1155    4.3106 H       1  LIG1        0.0238
     48 H          10.2265    2.0281    3.1889 H       1  LIG1        0.0238
     49 C          12.2628   -0.9043    7.9423 C.3     1  LIG1        0.1096
     50 H          12.8983   -1.0131    7.2319 H       1  LIG1        0.0740
     51 O          12.3285    0.4725    8.4272 O.3     1  LIG1       -0.4575
     52 C          10.8565   -1.1279    7.3918 C.3     1  LIG1       -0.0030
     53 H          10.7814   -2.0586    7.1711 H       1  LIG1        0.0337
     54 C          14.0609   -1.4195    9.5164 C.2     1  LIG1       -0.0708
     55 H          14.6380   -2.0769    9.9131 H       1  LIG1        0.0578
     56 C          12.7139   -1.8554    9.0200 C.3     1  LIG1        0.0036
     57 H          12.0775   -1.8310    9.7368 H       1  LIG1        0.0343
     58 H          12.7639   -2.7465    8.6668 H       1  LIG1        0.0343
     59 C          15.7979    0.3475    9.8836 C.3     1  LIG1       -0.0332
     60 H          15.6877    0.9633   10.6123 H       1  LIG1        0.0280
     61 H          16.2305    0.7915    9.1501 H       1  LIG1        0.0280
     62 H          16.3343   -0.3953   10.1715 H       1  LIG1        0.0280
     63 C           9.7291    0.1565    3.9294 C.3     1  LIG1       -0.0051
     64 C           5.5362   -3.5909    2.6377 C.2     1  LIG1        0.3040
     65 O           4.3346   -3.7006    2.6861 O.2     1  LIG1       -0.2512
     66 C           5.7168   -1.6705   -0.8205 C.3     1  LIG1       -0.0248
     67 H           6.6080   -1.9377   -1.0579 H       1  LIG1        0.0268
     68 H           5.1360   -1.7853   -1.5777 H       1  LIG1        0.0268
     69 H           5.4046   -2.2110   -0.0912 H       1  LIG1        0.0268
     70 C           6.0614    0.6554   -1.6184 C.3     1  LIG1       -0.0248
     71 H           6.9832    0.5243   -1.8513 H       1  LIG1        0.0268
     72 H           5.9123    1.5800   -1.4075 H       1  LIG1        0.0268
     73 H           5.5056    0.4014   -2.3590 H       1  LIG1        0.0268
     74 C          14.4518   -0.1504    9.4422 C.2     1  LIG1        0.0297
     75 C           9.7791   -0.8596    8.4524 C.3     1  LIG1       -0.0588
     76 H           8.9073   -1.0191    8.0831 H       1  LIG1        0.0234
     77 H           9.8449    0.0559    8.7336 H       1  LIG1        0.0234
     78 H           9.9162   -1.4368    9.2079 H       1  LIG1        0.0234
     79 C           6.5126   -4.7157    2.7158 C.3     1  LIG1        0.0332
     80 H           6.0364   -5.5428    2.8180 H       1  LIG1        0.0342
     81 H           7.0972   -4.5887    3.4655 H       1  LIG1        0.0342
     82 H           7.0295   -4.7401    1.9060 H       1  LIG1        0.0342
     83 C          13.4773    0.8799    9.0011 C.2     1  LIG1        0.3349
     84 O          13.6366    2.0698    9.1802 O.2     1  LIG1       -0.2453
@<TRIPOS>BOND
     1    73    70    1
     2    71    70    1
     3    70    72    1
     4    70    10    1
     5    68    66    1
     6    67    66    1
     7    66    10    1
     8    66    69    1
     9    10    11    1
    10    10    12    1
    11    16    14    1
    12    11     8    1
    13     9     8    2
    14     8     4    1
    15    14    12    1
    16    14    15    1
    17    14    17    1
    18    13    12    1
    19     6     4    1
    20    12     7    1
    21    18    17    1
    22     4     5    1
    23     4     1    1
    24    19    17    1
    25    17    20    1
    26    37    36    1
    27    82    79    1
    28     7    36    1
    29     7     1    1
    30     7    21    1
    31    36    39    1
    32    36    38    1
    33    39    64    1
    34     1     3    1
    35     1     2    1
    36    64    65    2
    37    64    79    1
    38    79    80    1
    39    79    81    1
    40    20    21    2
    41    20    63    1
    42    34    33    1
    43    48    45    1
    44    21    26    1
    45    35    33    1
    46    33    63    1
    47    33    42    1
    48    63    45    1
    49    63    22    1
    50    45    47    1
    51    45    46    1
    52    31    29    1
    53    26    27    1
    54    26    28    1
    55    26    23    1
    56    30    29    1
    57    42    43    1
    58    42    44    1
    59    42    40    1
    60    29    22    1
    61    29    32    1
    62    22    23    1
    63    22    40    1
    64    23    24    1
    65    23    25    1
    66    40    41    1
    67    40    52    1
    68    53    52    1
    69    50    49    1
    70    52    49    1
    71    52    75    1
    72    49    51    1
    73    49    56    1
    74    76    75    1
    75    51    83    1
    76    75    77    1
    77    75    78    1
    78    58    56    1
    79    83    84    2
    80    83    74    1
    81    56    54    1
    82    56    57    1
    83    61    59    1
    84    74    54    2
    85    74    59    1
    86    54    55    1
    87    59    62    1
    88    59    60    1
