@<TRIPOS>MOLECULE
3,10-bis(4-methoxyphenyl)12$^6^-thiapentacyclo[11.8.0.0^2,11^.0^4,9^.0^15,20^] henicosa-1(21),2,4(9),5,7,10,13,15(20),16,18-decaene-12,12-dione
 126 138 0 0 0
SMALL
GASTEIGER

@<TRIPOS>ATOM
      1 C           8.8060    4.2755    6.8937 C.ar    1  LIG1        0.1102
      2 C           4.7894    8.7384   -0.3648 C.ar    2  LIG2        0.1102
      3 C           5.8202    8.2714   -1.1240 C.ar    2  LIG2        0.0157
      4 C           9.0732    3.1460    6.1683 C.ar    1  LIG1        0.0157
      5 C           7.9766    2.2689    5.9314 C.ar    1  LIG1       -0.0077
      6 C           6.8679    9.1804   -1.4414 C.ar    2  LIG2       -0.0077
      7 C           7.9592    8.8026   -2.2486 C.ar    2  LIG2       -0.0534
      8 H           8.0125    7.9303   -2.5633 H       2  LIG2        0.0624
      9 C           8.1575    1.0491    5.2371 C.ar    1  LIG1       -0.0534
     10 H           8.9943    0.8285    4.8951 H       1  LIG1        0.0624
     11 C           7.0902    0.1866    5.0676 C.ar    1  LIG1       -0.0611
     12 H           7.2185   -0.6304    4.6424 H       1  LIG1        0.0618
     13 C           8.9307    9.6853   -2.5739 C.ar    2  LIG2       -0.0611
     14 H           9.6419    9.4124   -3.1080 H       2  LIG2        0.0618
     15 C           8.8756   10.9972   -2.1154 C.ar    2  LIG2       -0.0611
     16 H           9.5424   11.5984   -2.3590 H       2  LIG2        0.0618
     17 C           5.8336    0.5322    5.5246 C.ar    1  LIG1       -0.0611
     18 H           5.1208   -0.0453    5.3778 H       1  LIG1        0.0618
     19 C           5.6233    1.6872    6.1782 C.ar    1  LIG1       -0.0534
     20 H           4.7666    1.8953    6.4733 H       1  LIG1        0.0624
     21 C           7.8627   11.4070   -1.3155 C.ar    2  LIG2       -0.0534
     22 H           7.8520   12.2820   -1.0017 H       2  LIG2        0.0624
     23 C           6.6875    2.5984    6.4263 C.ar    1  LIG1       -0.0089
     24 C           6.8112   10.5131   -0.9495 C.ar    2  LIG2       -0.0089
     25 C           6.4641    3.7843    7.1875 C.ar    1  LIG1       -0.0005
     26 C           5.7352   10.9499   -0.1327 C.ar    2  LIG2       -0.0005
     27 C           7.5362    4.6209    7.4215 C.ar    1  LIG1        0.0181
     28 C           4.7148   10.0681    0.1719 C.ar    2  LIG2        0.0181
     29 C           3.5063   10.2789    0.9813 C.ar    2  LIG2        0.0104
     30 C           7.5612    5.9004    8.1647 C.ar    1  LIG1        0.0104
     31 C           8.8413    6.5027    8.1500 C.ar    1  LIG1        0.1019
     32 C           2.6704    9.1245    1.0117 C.ar    2  LIG2        0.1019
     33 C           1.5121    9.0623    1.7224 C.ar    2  LIG2       -0.0281
     34 H           1.0070    8.2814    1.7235 H       2  LIG2        0.0643
     35 C           9.1432    7.6653    8.7897 C.ar    1  LIG1       -0.0281
     36 H          10.0030    8.0168    8.7491 H       1  LIG1        0.0643
     37 C           8.1404    8.3254    9.5096 C.ar    1  LIG1       -0.0160
     38 C           1.0830   10.1863    2.4580 C.ar    2  LIG2       -0.0160
     39 C          -0.1005   10.1914    3.2094 C.ar    2  LIG2       -0.0540
     40 H          -0.6305    9.4284    3.2382 H       2  LIG2        0.0624
     41 C           8.3886    9.5158   10.2260 C.ar    1  LIG1       -0.0540
     42 H           9.2314    9.9083   10.1942 H       1  LIG1        0.0624
     43 C           7.4008   10.0885   10.9598 C.ar    1  LIG1       -0.0612
     44 H           7.5773   10.8647   11.4395 H       1  LIG1        0.0618
     45 C          -0.4774   11.2944    3.8964 C.ar    2  LIG2       -0.0612
     46 H          -1.2713   11.2849    4.3806 H       2  LIG2        0.0618
     47 C           0.3039   12.4360    3.8873 C.ar    2  LIG2       -0.0612
     48 H           0.0426   13.1781    4.3836 H       2  LIG2        0.0618
     49 C           6.1383    9.5347   11.0052 C.ar    1  LIG1       -0.0612
     50 H           5.4758    9.9403   11.5167 H       1  LIG1        0.0618
     51 C           1.4479   12.4817    3.1574 C.ar    2  LIG2       -0.0540
     52 H           1.9483   13.2649    3.1353 H       2  LIG2        0.0624
     53 C           5.8530    8.4075   10.3107 C.ar    1  LIG1       -0.0540
     54 H           4.9935    8.0569   10.3410 H       1  LIG1        0.0624
     55 C           6.8481    7.7559    9.5411 C.ar    1  LIG1       -0.0172
     56 C           1.8840   11.3531    2.4314 C.ar    2  LIG2       -0.0172
     57 C           3.0842   11.3760    1.6823 C.ar    2  LIG2       -0.0444
     58 H           3.5964   12.1520    1.6660 H       2  LIG2        0.0630
     59 C           6.5793    6.5640    8.8508 C.ar    1  LIG1       -0.0444
     60 H           5.7166    6.2184    8.8596 H       1  LIG1        0.0630
     61 C          10.4306    2.8709    5.6332 C.ar    1  LIG1       -0.0152
     62 C           5.8723    6.8469   -1.5790 C.ar    2  LIG2       -0.0152
     63 C           6.1515    5.8406   -0.6870 C.ar    2  LIG2       -0.0505
     64 H           6.3147    6.0545    0.2028 H       2  LIG2        0.0625
     65 C          11.4877    2.5271    6.4494 C.ar    1  LIG1       -0.0505
     66 H          11.3399    2.4385    7.3631 H       1  LIG1        0.0625
     67 C           6.1966    4.5239   -1.0789 C.ar    2  LIG2       -0.0194
     68 H           6.3880    3.8606   -0.4555 H       2  LIG2        0.0654
     69 C          12.7557    2.3082    5.9573 C.ar    1  LIG1       -0.0194
     70 H          13.4427    2.0612    6.5354 H       1  LIG1        0.0654
     71 C          13.0054    2.4525    4.6303 C.ar    1  LIG1        0.1201
     72 C           5.9597    4.1874   -2.3726 C.ar    2  LIG2        0.1201
     73 C           5.6740    5.1774   -3.2999 C.ar    2  LIG2       -0.0194
     74 H           5.5082    4.9503   -4.1869 H       2  LIG2        0.0654
     75 C          11.9695    2.7877    3.7905 C.ar    1  LIG1       -0.0194
     76 H          12.1265    2.8792    2.8780 H       1  LIG1        0.0654
     77 C          10.7162    2.9888    4.2823 C.ar    1  LIG1       -0.0505
     78 H          10.0306    3.2111    3.6936 H       1  LIG1        0.0625
     79 C           5.6375    6.4925   -2.9101 C.ar    2  LIG2       -0.0505
     80 H           5.4524    7.1538   -3.5378 H       2  LIG2        0.0625
     81 C           5.7444   12.3323    0.4090 C.ar    2  LIG2       -0.0164
     82 C           5.1211    4.0608    7.7565 C.ar    1  LIG1       -0.0164
     83 C           4.8336    3.7173    9.0563 C.ar    1  LIG1       -0.0505
     84 H           5.4833    3.2870    9.5647 H       1  LIG1        0.0625
     85 C           5.1742   13.3725   -0.2981 C.ar    2  LIG2       -0.0505
     86 H           4.7761   13.1959   -1.1213 H       2  LIG2        0.0625
     87 C           5.1775   14.6658    0.1816 C.ar    2  LIG2       -0.0194
     88 H           4.7829   15.3475   -0.3117 H       2  LIG2        0.0654
     89 C           3.6121    3.9926    9.6237 C.ar    1  LIG1       -0.0194
     90 H           3.4472    3.7511   10.5074 H       1  LIG1        0.0654
     91 C           2.6330    4.6242    8.8898 C.ar    1  LIG1        0.1201
     92 C           5.7579   14.9373    1.3785 C.ar    2  LIG2        0.1201
     93 C           2.8955    4.9780    7.5991 C.ar    1  LIG1       -0.0194
     94 H           2.2433    5.4120    7.0967 H       1  LIG1        0.0654
     95 C           6.3318   13.9167    2.1045 C.ar    2  LIG2       -0.0194
     96 H           6.7332   14.0981    2.9234 H       2  LIG2        0.0654
     97 C           4.1247    4.6962    7.0332 C.ar    1  LIG1       -0.0505
     98 H           4.2855    4.9377    6.1495 H       1  LIG1        0.0625
     99 C           6.3141   12.6287    1.6207 C.ar    2  LIG2       -0.0505
    100 H           6.6975   11.9467    2.1245 H       2  LIG2        0.0625
    101 C          15.3922    2.1865    4.9132 C.3     1  LIG1        0.0788
    102 H          15.3883    2.9211    5.5306 H       1  LIG1        0.0660
    103 H          16.1934    2.2152    4.3851 H       1  LIG1        0.0660
    104 H          15.3591    1.3595    5.3990 H       1  LIG1        0.0660
    105 C           5.9975    1.8533   -1.9096 C.3     2  LIG2        0.0788
    106 H           6.8561    1.8149   -1.4814 H       2  LIG2        0.0660
    107 H           5.8217    1.0191   -2.3499 H       2  LIG2        0.0660
    108 H           5.3183    2.0158   -1.2514 H       2  LIG2        0.0660
    109 C           5.2263   17.2599    1.2347 C.3     2  LIG2        0.0788
    110 H           5.4860   17.2326    0.3102 H       2  LIG2        0.0660
    111 H           5.5060   18.0913    1.6206 H       2  LIG2        0.0660
    112 H           4.2720   17.1802    1.3013 H       2  LIG2        0.0660
    113 C           0.3714    5.4150    8.8111 C.3     1  LIG1        0.0788
    114 H           0.5876    6.3137    8.5554 H       1  LIG1        0.0660
    115 H          -0.4155    5.4197    9.3619 H       1  LIG1        0.0660
    116 H           0.2056    4.8888    8.0243 H       1  LIG1        0.0660
    117 O          11.0017    5.0490    8.1985 O.2     1  LIG1       -0.1643
    118 O           2.5788    7.5190   -1.0594 O.2     2  LIG2       -0.1643
    119 O           3.6968    6.7302    0.9725 O.2     2  LIG2       -0.1643
    120 O          10.4487    6.1806    6.1015 O.2     1  LIG1       -0.1643
    121 O           5.9920    2.8912   -2.8552 O.3     2  LIG2       -0.4951
    122 O          14.2371    2.2818    4.0424 O.3     1  LIG1       -0.4951
    123 O           5.8454   16.1760    1.9344 O.3     2  LIG2       -0.4951
    124 O           1.4572    4.8529    9.5381 O.3     1  LIG1       -0.4951
    125 S          10.0016    5.5222    7.2866 S.O2    1  LIG1        0.0268
    126 S           3.3622    7.8051    0.0947 S.O2    2  LIG2        0.0268
@<TRIPOS>BOND
     1    74    73    1
     2    80    79    1
     3    73    79   ar
     4    73    72   ar
     5    14    13    1
     6    79    62   ar
     7   121    72    1
     8   121   105    1
     9    13     7   ar
    10    13    15   ar
    11     8     7    1
    12    72    67   ar
    13    16    15    1
    14   107   105    1
    15     7     6   ar
    16    15    21   ar
    17   105   106    1
    18   105   108    1
    19    62     3    1
    20    62    63   ar
    21     6     3   ar
    22     6    24   ar
    23    21    22    1
    24    21    24   ar
    25     3     2   ar
    26    86    85    1
    27    67    63   ar
    28    67    68    1
    29   118   126    2
    30    24    26   ar
    31    63    64    1
    32     2   126    1
    33     2    28   ar
    34    88    87    1
    35    85    87   ar
    36    85    81   ar
    37    26    28   ar
    38    26    81    1
    39   126   119    2
    40   126    32    1
    41    28    29    1
    42    87    92   ar
    43   110   109    1
    44    81    99   ar
    45    29    32   ar
    46    29    57   ar
    47    32    33   ar
    48   109   112    1
    49   109   111    1
    50   109   123    1
    51    92   123    1
    52    92    95   ar
    53    99    95   ar
    54    99   100    1
    55    58    57    1
    56    57    56   ar
    57    33    34    1
    58    33    38   ar
    59    95    96    1
    60    56    38   ar
    61    56    51   ar
    62    38    39   ar
    63    76    75    1
    64    52    51    1
    65    51    47   ar
    66    39    40    1
    67    39    45   ar
    68    78    77    1
    69    75    77   ar
    70    75    71   ar
    71    47    45   ar
    72    47    48    1
    73    45    46    1
    74   122    71    1
    75   122   101    1
    76    77    61   ar
    77   103   101    1
    78    71    69   ar
    79    12    11    1
    80    10     9    1
    81   101   104    1
    82   101   102    1
    83    11     9   ar
    84    11    17   ar
    85     9     5   ar
    86    18    17    1
    87    17    19   ar
    88    61     4    1
    89    61    65   ar
    90     5     4   ar
    91     5    23   ar
    92    69    65   ar
    93    69    70    1
    94   120   125    2
    95    98    97    1
    96     4     1   ar
    97    19    23   ar
    98    19    20    1
    99    23    25   ar
   100    65    66    1
   101     1   125    1
   102     1    27   ar
   103    97    93   ar
   104    97    82   ar
   105    94    93    1
   106    25    27   ar
   107    25    82    1
   108   125    31    1
   109   125   117    2
   110    27    30    1
   111    93    91   ar
   112    82    83   ar
   113   116   113    1
   114    31    30   ar
   115    31    35   ar
   116    30    59   ar
   117   114   113    1
   118    36    35    1
   119    35    37   ar
   120   113   115    1
   121   113   124    1
   122    59    60    1
   123    59    55   ar
   124    91   124    1
   125    91    89   ar
   126    83    84    1
   127    83    89   ar
   128    37    55   ar
   129    37    41   ar
   130    55    53   ar
   131    89    90    1
   132    42    41    1
   133    41    43   ar
   134    53    54    1
   135    53    49   ar
   136    43    49   ar
   137    43    44    1
   138    49    50    1
