@<TRIPOS>MOLECULE
?
 47 48 0 0 0
SMALL
GASTEIGER

@<TRIPOS>ATOM
      1 O           1.8449   11.5597    0.7046 O.3     1  LIG1       -0.4444
      2 O           1.9137   10.4344    2.6767 O.2     1  LIG1       -0.2261
      3 O           1.0635    4.6956    4.4074 O.3     1  LIG1       -0.4614
      4 O           0.6569    6.8275    4.9534 O.2     1  LIG1       -0.2450
      5 N           1.6792    8.5125   -1.8754 N.ar    1  LIG1       -0.2549
      6 C           1.6084    8.0211    1.0291 C.ar    1  LIG1        0.0464
      7 N           1.7107    9.3683    0.6521 N.am    1  LIG1       -0.2505
      8 H           1.6958    9.5341   -0.2129 H       1  LIG1        0.1582
      9 C           1.3502    5.3108    1.7337 C.ar    1  LIG1       -0.0470
     10 H           1.2665    4.3940    1.9699 H       1  LIG1        0.0626
     11 C           1.7607    7.0153    0.0348 C.ar    1  LIG1        0.0217
     12 C           1.8294   10.4522    1.4729 C.2     1  LIG1        0.4051
     13 C           2.0447    7.3091   -1.4060 C.ar    1  LIG1        0.0727
     14 C           1.8845    8.7843   -3.1722 C.ar    1  LIG1        0.0283
     15 H           1.6265    9.6378   -3.5001 H       1  LIG1        0.0830
     16 C           1.3309    7.6432    2.3426 C.ar    1  LIG1       -0.0258
     17 H           1.2229    8.3137    3.0066 H       1  LIG1        0.0644
     18 C           1.6134    5.6803    0.4254 C.ar    1  LIG1       -0.0500
     19 H           1.6975    4.9999   -0.2328 H       1  LIG1        0.0625
     20 C           1.2100    6.3081    2.6970 C.ar    1  LIG1        0.0608
     21 C           2.6530    6.3581   -2.2292 C.ar    1  LIG1       -0.0356
     22 H           2.9373    5.5230   -1.8764 H       1  LIG1        0.0639
     23 C           0.9488    5.9924    4.1271 C.2     1  LIG1        0.3392
     24 C           2.4554    7.8821   -4.0608 C.ar    1  LIG1       -0.0436
     25 H           2.5798    8.1065   -4.9765 H       1  LIG1        0.0633
     26 C           2.8351    6.6544   -3.5707 C.ar    1  LIG1       -0.0583
     27 H           3.2212    6.0094   -4.1507 H       1  LIG1        0.0619
     28 C           1.8595   12.9028    1.3177 C.3     1  LIG1        0.1068
     29 C           0.8429    4.3282    5.7977 C.3     1  LIG1        0.0900
     30 H          -0.1102    4.4513    6.0371 H       1  LIG1        0.0695
     31 H           1.3924    4.8963    6.3933 H       1  LIG1        0.0695
     32 C           0.5949   13.1052    2.1440 C.3     1  LIG1       -0.0253
     33 H          -0.1916   12.9528    1.5799 H       1  LIG1        0.0268
     34 H           0.5753   14.0208    2.4912 H       1  LIG1        0.0268
     35 H           0.5885   12.4712    2.8912 H       1  LIG1        0.0268
     36 C           3.1177   13.1186    2.1404 C.3     1  LIG1       -0.0253
     37 H           3.9060   12.9723    1.5759 H       1  LIG1        0.0268
     38 H           3.1302   12.4870    2.8892 H       1  LIG1        0.0268
     39 H           3.1281   14.0354    2.4873 H       1  LIG1        0.0268
     40 C           1.8599   13.8123    0.0947 C.3     1  LIG1       -0.0253
     41 H           1.0442   13.6575   -0.4258 H       1  LIG1        0.0268
     42 H           2.6437   13.6148   -0.4596 H       1  LIG1        0.0268
     43 H           1.8913   14.7474    0.3840 H       1  LIG1        0.0268
     44 C           1.2319    2.8919    5.9495 C.3     1  LIG1       -0.0306
     45 H           1.0883    2.6103    6.8768 H       1  LIG1        0.0262
     46 H           2.1784    2.7834    5.7187 H       1  LIG1        0.0262
     47 H           0.6847    2.3396    5.3526 H       1  LIG1        0.0262
@<TRIPOS>BOND
     1    25    24    1
     2    27    26    1
     3    24    26   ar
     4    24    14   ar
     5    26    21   ar
     6    15    14    1
     7    14     5   ar
     8    21    22    1
     9    21    13   ar
    10     5    13   ar
    11    13    11    1
    12    42    40    1
    13    41    40    1
    14    19    18    1
    15     8     7    1
    16    11    18   ar
    17    11     6   ar
    18    40    43    1
    19    40    28    1
    20    18     9   ar
    21     7     6    1
    22     7    12   am
    23     1    28    1
    24     1    12    1
    25     6    16   ar
    26    28    36    1
    27    28    32    1
    28    12     2    2
    29    37    36    1
    30    33    32    1
    31     9    10    1
    32     9    20   ar
    33    36    39    1
    34    36    38    1
    35    32    34    1
    36    32    35    1
    37    16    20   ar
    38    16    17    1
    39    20    23    1
    40    23     3    1
    41    23     4    2
    42     3    29    1
    43    47    44    1
    44    46    44    1
    45    29    44    1
    46    29    30    1
    47    29    31    1
    48    44    45    1
