@<TRIPOS>MOLECULE
?
 52 52 0 0 0
SMALL
GASTEIGER

@<TRIPOS>ATOM
      1 N           3.3165   11.3041    1.5299 N.pl3   1  LIG1       -0.3420
      2 C           2.8753   13.2743    5.1794 C.ar    1  LIG1        0.1492
      3 C           3.9551   13.1170    3.0401 C.ar    1  LIG1        0.1492
      4 N           4.9280   13.6796    2.1562 N.pl3   1  LIG1        0.0583
      5 N           1.2606   11.5569    5.8087 N.pl3   1  LIG1       -0.3420
      6 C           3.2022   11.9357    2.7054 C.ar    1  LIG1        0.0596
      7 C           2.1228   12.0776    4.9251 C.ar    1  LIG1        0.0596
      8 C           2.3326   11.4674    3.6882 C.ar    1  LIG1       -0.0155
      9 H           1.8565   10.6898    3.5052 H       1  LIG1        0.0656
     10 C           3.7722   13.7406    4.2493 C.ar    1  LIG1        0.0024
     11 H           4.2707   14.5013    4.4443 H       1  LIG1        0.0664
     12 N           2.7500   14.0146    6.3980 N.pl3   1  LIG1        0.0583
     13 O           5.6033   14.6271    2.5295 O.2     1  LIG1       -0.1261
     14 O           5.0786   13.1948    1.0327 O.2     1  LIG1       -0.1261
     15 C           0.5411   10.3103    5.6393 C.3     1  LIG1        0.0092
     16 H           0.1813   10.2772    4.7392 H       1  LIG1        0.0461
     17 H          -0.2073   10.2943    6.2555 H       1  LIG1        0.0461
     18 C           1.3917    9.0773    5.8720 C.3     1  LIG1       -0.0374
     19 H           2.1250    9.0726    5.2368 H       1  LIG1        0.0280
     20 H           1.7706    9.1161    6.7640 H       1  LIG1        0.0280
     21 C           0.5992    7.7940    5.7254 C.3     1  LIG1       -0.0496
     22 H          -0.1947    7.8493    6.2804 H       1  LIG1        0.0266
     23 H           0.3107    7.7064    4.8031 H       1  LIG1        0.0266
     24 O           3.4958   14.9574    6.6029 O.2     1  LIG1       -0.1261
     25 C           2.6913   10.0385    1.2043 C.3     1  LIG1        0.0092
     26 H           2.5919    9.9718    0.2418 H       1  LIG1        0.0461
     27 H           1.8052   10.0125    1.5974 H       1  LIG1        0.0461
     28 O           1.8904   13.6970    7.2204 O.2     1  LIG1       -0.1261
     29 C           2.7133    7.5487    1.7378 C.3     1  LIG1       -0.0496
     30 H           2.1840    7.5207    2.5505 H       1  LIG1        0.0266
     31 H           2.1008    7.5257    0.9859 H       1  LIG1        0.0266
     32 C           1.3824    6.5599    6.1133 C.3     1  LIG1       -0.0297
     33 H           2.1624    6.4942    5.5410 H       1  LIG1        0.0287
     34 H           1.6963    6.6656    7.0245 H       1  LIG1        0.0287
     35 C           3.5958    6.3249    1.6869 C.3     1  LIG1       -0.0297
     36 H           4.3340    6.4517    2.3041 H       1  LIG1        0.0287
     37 H           3.9696    6.2526    0.7956 H       1  LIG1        0.0287
     38 C           3.4874    8.8551    1.7010 C.3     1  LIG1       -0.0374
     39 H           3.8089    9.0510    2.5942 H       1  LIG1        0.0280
     40 H           4.2625    8.7398    1.1294 H       1  LIG1        0.0280
     41 O           2.6188    4.9036    3.3945 O.3     1  LIG1       -0.3950
     42 O           0.2591    4.9218    4.6939 O.3     1  LIG1       -0.3950
     43 C           0.6019    5.2700    6.0163 C.3     1  LIG1        0.0442
     44 H           1.1290    4.5543    6.4037 H       1  LIG1        0.0557
     45 H          -0.2107    5.3550    6.5394 H       1  LIG1        0.0557
     46 C           2.9062    5.0249    2.0255 C.3     1  LIG1        0.0442
     47 H           2.0791    4.9643    1.5225 H       1  LIG1        0.0557
     48 H           3.4730    4.2867    1.7550 H       1  LIG1        0.0557
     49 H           0.9438    4.9177    4.2634 H       1  LIG1        0.2094
     50 H           3.3408    4.9987    3.8516 H       1  LIG1        0.2094
     51 H           1.2274   11.9104    6.5409 H       1  LIG1        0.1461
     52 H           3.8382   11.5746    1.0031 H       1  LIG1        0.1461
@<TRIPOS>BOND
     1    26    25    1
     2    37    35    1
     3    31    29    1
     4    52     1    1
     5    14     4    2
     6    40    38    1
     7    25     1    1
     8    25    27    1
     9    25    38    1
    10    47    46    1
    11     1     6    1
    12    35    29    1
    13    35    46    1
    14    35    36    1
    15    38    29    1
    16    38    39    1
    17    29    30    1
    18    48    46    1
    19    46    41    1
    20     4    13    2
    21     4     3    1
    22     6     3   ar
    23     6     8   ar
    24     3    10   ar
    25    41    50    1
    26     9     8    1
    27     8     7   ar
    28    10    11    1
    29    10     2   ar
    30    49    42    1
    31    42    43    1
    32    16    15    1
    33    23    21    1
    34     7     2   ar
    35     7     5    1
    36     2    12    1
    37    19    18    1
    38    33    32    1
    39    15     5    1
    40    15    18    1
    41    15    17    1
    42    21    18    1
    43    21    32    1
    44    21    22    1
    45     5    51    1
    46    18    20    1
    47    43    32    1
    48    43    44    1
    49    43    45    1
    50    32    34    1
    51    12    24    2
    52    12    28    2
