@<TRIPOS>MOLECULE
1516630.cif
 26 26 0 0 0
SMALL
GASTEIGER

@<TRIPOS>ATOM
      1 S           0.2771    4.9843    7.8689 S.2     1  LIG1       -0.0405
      2 O           4.4684    5.8520    6.4184 O.2     1  LIG1       -0.2487
      3 N           2.5318    4.5050    9.1581 N.am    1  LIG1       -0.3121
      4 O           3.2235    3.9963    6.6381 O.3     1  LIG1       -0.4666
      5 O           5.3725    3.7030    8.8893 O.3     1  LIG1       -0.3902
      6 H           6.0849    4.0663    8.6318 H       1  LIG1        0.2098
      7 C           3.7214    5.1542    7.0569 C.2     1  LIG1        0.3276
      8 C           4.4123    5.8860    9.3622 C.3     1  LIG1        0.0036
      9 H           5.1680    6.2827    8.8603 H       1  LIG1        0.0314
     10 H           4.1483    6.5011   10.0914 H       1  LIG1        0.0314
     11 C           3.2282    5.5761    8.4357 C.3     1  LIG1        0.1235
     12 H           2.6362    6.3778    8.3566 H       1  LIG1        0.0617
     13 C           3.4092    3.8960   10.1852 C.3     1  LIG1        0.0393
     14 H           3.4353    2.9105   10.0914 H       1  LIG1        0.0489
     15 H           3.1001    4.1247   11.0976 H       1  LIG1        0.0489
     16 C           0.7391    3.0506    9.8088 C.3     1  LIG1       -0.0196
     17 H           1.2718    2.2456    9.6403 H       1  LIG1        0.0295
     18 H          -0.1968    2.8781    9.5775 H       1  LIG1        0.0295
     19 H           0.8023    3.2922   10.7561 H       1  LIG1        0.0295
     20 C           1.2623    4.1807    8.9688 C.2     1  LIG1        0.0490
     21 C           3.6772    3.5592    5.3383 C.3     1  LIG1        0.0817
     22 H           3.5325    4.2749    4.6848 H       1  LIG1        0.0661
     23 H           3.1737    2.7635    5.0674 H       1  LIG1        0.0661
     24 H           4.6320    3.3430    5.3803 H       1  LIG1        0.0661
     25 C           4.7696    4.5057    9.9030 C.3     1  LIG1        0.0731
     26 H           5.3355    4.5593   10.7264 H       1  LIG1        0.0610
@<TRIPOS>BOND
     1    22    21    1
     2    23    21    1
     3    21    24    1
     4    21     4    1
     5     2     7    2
     6     4     7    1
     7     7    11    1
     8     1    20    2
     9    12    11    1
    10    11     3    1
    11    11     8    1
    12     6     5    1
    13     9     8    1
    14     5    25    1
    15    20     3    1
    16    20    16    1
    17     3    13    1
    18     8    25    1
    19     8    10    1
    20    18    16    1
    21    17    16    1
    22    16    19    1
    23    25    13    1
    24    25    26    1
    25    14    13    1
    26    13    15    1
