@<TRIPOS>MOLECULE
?
 42 44 0 0 0
SMALL
GASTEIGER

@<TRIPOS>ATOM
      1 N           1.3051    0.0981   11.6516 N.pl3   1  LIG1       -0.3145
      2 H           0.4919    0.1766   11.3845 H       1  LIG1        0.1522
      3 N           5.2318   -2.6096    6.8884 N.1     1  LIG1       -0.1909
      4 C           2.6261    0.5023   15.0793 C.ar    1  LIG1       -0.0528
      5 H           3.3061    0.1640   15.6149 H       1  LIG1        0.0624
      6 C           2.5193    0.0455   13.7859 C.ar    1  LIG1       -0.0400
      7 H           3.1027   -0.6083   13.4724 H       1  LIG1        0.0636
      8 C           1.5405    0.5627   12.9474 C.ar    1  LIG1        0.0313
      9 C           0.6978    1.5414   13.4482 C.ar    1  LIG1       -0.0400
     10 H           0.0534    1.9197   12.8958 H       1  LIG1        0.0636
     11 C           0.8008    1.9613   14.7518 C.ar    1  LIG1       -0.0528
     12 H           0.2123    2.6088   15.0656 H       1  LIG1        0.0624
     13 C           1.7630    1.4441   15.6156 C.ar    1  LIG1       -0.0247
     14 C           1.9244    1.8530   17.0157 C.2     1  LIG1       -0.0511
     15 H           2.8015    1.8986   17.3241 H       1  LIG1        0.0626
     16 C           0.9762    2.1701   17.9140 C.2     1  LIG1       -0.0428
     17 C          -0.4932    2.0571   17.6097 C.3     1  LIG1       -0.0391
     18 H          -0.6190    1.4771   16.8567 H       1  LIG1        0.0278
     19 H          -0.8453    2.9267   17.4060 H       1  LIG1        0.0278
     20 H          -0.9508    1.6961   18.3715 H       1  LIG1        0.0278
     21 C           1.3601    2.6238   19.2790 C.ar    1  LIG1       -0.0221
     22 C           2.5409    3.3097   19.5126 C.ar    1  LIG1       -0.0543
     23 H           3.1065    3.4918   18.7979 H       1  LIG1        0.0624
     24 C           2.8981    3.7296   20.7766 C.ar    1  LIG1       -0.0612
     25 H           3.6938    4.1942   20.8995 H       1  LIG1        0.0618
     26 C           2.0909    3.4683   21.8465 C.ar    1  LIG1       -0.0617
     27 H           2.3413    3.7320   22.7042 H       1  LIG1        0.0618
     28 C           0.9152    2.8153   21.6398 C.ar    1  LIG1       -0.0612
     29 H           0.3495    2.6465   22.3596 H       1  LIG1        0.0618
     30 C           0.5504    2.4009   20.3771 C.ar    1  LIG1       -0.0543
     31 H          -0.2606    1.9606   20.2615 H       1  LIG1        0.0624
     32 C           2.1672   -0.4654   10.7302 C.ar    1  LIG1        0.0314
     33 C           1.6041   -1.0250    9.5852 C.ar    1  LIG1       -0.0393
     34 H           0.6788   -1.0391    9.4911 H       1  LIG1        0.0636
     35 C           2.3871   -1.5556    8.5928 C.ar    1  LIG1       -0.0426
     36 H           1.9931   -1.9119    7.8296 H       1  LIG1        0.0631
     37 C           3.7688   -1.5587    8.7286 C.ar    1  LIG1        0.0519
     38 C           4.3331   -0.9991    9.8653 C.ar    1  LIG1       -0.0426
     39 H           5.2585   -0.9921    9.9585 H       1  LIG1        0.0631
     40 C           3.5514   -0.4544   10.8550 C.ar    1  LIG1       -0.0393
     41 H           3.9480   -0.0793   11.6063 H       1  LIG1        0.0636
     42 C           4.5848   -2.1395    7.7051 C.1     1  LIG1        0.0992
@<TRIPOS>BOND
     1     3    42    3
     2    42    37    1
     3    36    35    1
     4    35    37   ar
     5    35    33   ar
     6    37    38   ar
     7    34    33    1
     8    33    32   ar
     9    38    39    1
    10    38    40   ar
    11    32    40   ar
    12    32     1    1
    13    40    41    1
    14     2     1    1
    15     1     8    1
    16    10     9    1
    17     8     9   ar
    18     8     6   ar
    19     9    11   ar
    20     7     6    1
    21     6     4   ar
    22    11    12    1
    23    11    13   ar
    24     4     5    1
    25     4    13   ar
    26    13    14    1
    27    18    17    1
    28    14    15    1
    29    14    16    2
    30    19    17    1
    31    17    16    1
    32    17    20    1
    33    16    21    1
    34    23    22    1
    35    21    22   ar
    36    21    30   ar
    37    22    24   ar
    38    31    30    1
    39    30    28   ar
    40    24    25    1
    41    24    26   ar
    42    28    26   ar
    43    28    29    1
    44    26    27    1
