@<TRIPOS>MOLECULE
?
 27 28 0 0 0
SMALL
GASTEIGER

@<TRIPOS>ATOM
      1 F          -0.9172    4.5273    7.4521 F       1  LIG1       -0.2351
      2 O           1.4332    4.0539    5.0153 O.3     1  LIG1       -0.4484
      3 O           2.6420    2.4169    5.9604 O.2     1  LIG1       -0.2265
      4 N           1.8970    4.2335    7.1666 N.am    1  LIG1       -0.2716
      5 C           2.0493    3.4789    6.0667 C.2     1  LIG1        0.4007
      6 C          -0.0720    5.6139    7.7827 C.3     1  LIG1        0.1551
      7 C           0.2882    5.5094    9.2505 C.ar    1  LIG1       -0.0092
      8 C           1.1822    5.4682    6.9105 C.3     1  LIG1        0.0980
      9 C          -0.1179    4.4286   10.0244 C.ar    1  LIG1       -0.0555
     10 C           1.0713    6.5090    9.8381 C.ar    1  LIG1       -0.0555
     11 C           0.9070    5.3457    5.3983 C.3     1  LIG1        0.1157
     12 C           1.4453    6.4214   11.1698 C.ar    1  LIG1       -0.0614
     13 C           0.2515    4.3508   11.3704 C.ar    1  LIG1       -0.0614
     14 C           1.0308    5.3417   11.9404 C.ar    1  LIG1       -0.0617
     15 C          -0.8344    6.8893    7.4527 C.3     1  LIG1       -0.0248
     16 H           2.3325    3.9938    7.9905 H       1  LIG1        0.1525
     17 H           1.7565    6.2229    7.1032 H       1  LIG1        0.0568
     18 H          -0.0854    5.3405    5.1875 H       1  LIG1        0.0718
     19 H           1.4088    6.0255    4.8381 H       1  LIG1        0.0718
     20 H          -1.1342    6.8904    6.5147 H       1  LIG1        0.0264
     21 H          -0.2526    7.6683    7.6242 H       1  LIG1        0.0264
     22 H          -1.6199    6.9601    8.0457 H       1  LIG1        0.0264
     23 H           1.3483    7.2910    9.3100 H       1  LIG1        0.0621
     24 H           1.9903    7.1400   11.5582 H       1  LIG1        0.0618
     25 H          -0.6923    3.7326    9.6349 H       1  LIG1        0.0621
     26 H           1.2955    5.2883   12.8884 H       1  LIG1        0.0618
     27 H          -0.0827    3.5932   11.9091 H       1  LIG1        0.0618
@<TRIPOS>BOND
     1    19    11    1
     2     2    11    1
     3     2     5    1
     4    18    11    1
     5    11     8    1
     6     3     5    2
     7     5     4   am
     8    20    15    1
     9     8    17    1
    10     8     4    1
    11     8     6    1
    12     4    16    1
    13     1     6    1
    14    15    21    1
    15    15     6    1
    16    15    22    1
    17     6     7    1
    18     7    10   ar
    19     7     9   ar
    20    23    10    1
    21    25     9    1
    22    10    12   ar
    23     9    13   ar
    24    12    24    1
    25    12    14   ar
    26    13    27    1
    27    13    14   ar
    28    14    26    1
