@<TRIPOS>MOLECULE
?
 54 59 0 0 0
SMALL
GASTEIGER

@<TRIPOS>ATOM
      1 C           4.5865    2.9048   -2.3424 C.ar    1  LIG1        0.1621
      2 O           4.8424    2.9060   -3.6906 O.3     1  LIG1       -0.4914
      3 C           4.5978    4.0023   -1.5433 C.ar    1  LIG1       -0.0080
      4 H           4.8048    4.8294   -1.9155 H       1  LIG1        0.0662
      5 O           4.1302    0.6234   -2.6952 O.3     1  LIG1       -0.4914
      6 C           4.3022    3.9233   -0.1551 C.ar    1  LIG1       -0.0059
      7 C           4.1843    5.0857    0.6674 C.ar    1  LIG1       -0.0094
      8 C           3.8509    4.9396    1.9829 C.ar    1  LIG1       -0.0451
      9 H           3.7362    5.7047    2.5001 H       1  LIG1        0.0630
     10 C           3.6719    3.6757    2.5974 C.ar    1  LIG1       -0.0084
     11 C           3.1809    3.6019    3.9745 C.ar    1  LIG1       -0.0095
     12 C           2.9017    4.7513    4.7249 C.ar    1  LIG1       -0.0534
     13 H           3.0875    5.5861    4.3589 H       1  LIG1        0.0624
     14 C           2.3636    4.6826    5.9842 C.ar    1  LIG1       -0.0611
     15 H           2.2033    5.4609    6.4685 H       1  LIG1        0.0618
     16 C           2.0604    3.4500    6.5300 C.ar    1  LIG1       -0.0611
     17 H           1.6751    3.3986    7.3760 H       1  LIG1        0.0618
     18 C           2.3238    2.3109    5.8321 C.ar    1  LIG1       -0.0534
     19 H           2.1078    1.4881    6.2089 H       1  LIG1        0.0624
     20 C           2.9175    2.3449    4.5506 C.ar    1  LIG1       -0.0096
     21 C           3.3509    1.1424    3.8580 C.ar    1  LIG1       -0.0096
     22 C           3.3306   -0.1203    4.4887 C.ar    1  LIG1       -0.0534
     23 H           2.9024   -0.2092    5.3100 H       1  LIG1        0.0624
     24 C           3.9236   -1.2114    3.9273 C.ar    1  LIG1       -0.0611
     25 H           3.8611   -2.0397    4.3458 H       1  LIG1        0.0618
     26 C           4.6166   -1.0894    2.7388 C.ar    1  LIG1       -0.0611
     27 H           5.0734   -1.8199    2.3889 H       1  LIG1        0.0618
     28 C           4.6287    0.1174    2.0736 C.ar    1  LIG1       -0.0534
     29 H           5.1073    0.1932    1.2806 H       1  LIG1        0.0624
     30 C           3.9353    1.2346    2.5667 C.ar    1  LIG1       -0.0090
     31 C           3.8969    2.5210    1.8579 C.ar    1  LIG1       -0.0017
     32 C           4.0995    2.6413    0.4300 C.ar    1  LIG1       -0.0053
     33 C           4.0116    1.5350   -0.4570 C.ar    1  LIG1       -0.0080
     34 H           3.7949    0.6994   -0.1113 H       1  LIG1        0.0662
     35 C           4.2329    1.6520   -1.7950 C.ar    1  LIG1        0.1621
     36 C           4.9959    4.1749   -4.3148 C.3     1  LIG1        0.0790
     37 H           4.2028    4.6975   -4.1756 H       1  LIG1        0.0660
     38 H           5.1389    4.0527   -5.2555 H       1  LIG1        0.0660
     39 H           5.7499    4.6296   -3.9334 H       1  LIG1        0.0660
     40 C           4.3164    6.4797    0.1514 C.ar    1  LIG1       -0.0173
     41 C           3.6286    6.9262   -0.9728 C.ar    1  LIG1       -0.0540
     42 H           3.0973    6.3348   -1.4551 H       1  LIG1        0.0624
     43 C           3.7324    8.2420   -1.3755 C.ar    1  LIG1       -0.0612
     44 H           3.2697    8.5277   -2.1293 H       1  LIG1        0.0618
     45 C           4.5090    9.1352   -0.6787 C.ar    1  LIG1       -0.0617
     46 H           4.5783   10.0185   -0.9621 H       1  LIG1        0.0618
     47 C           5.1795    8.7132    0.4348 C.ar    1  LIG1       -0.0612
     48 H           5.7025    9.3151    0.9141 H       1  LIG1        0.0618
     49 C           5.0885    7.3998    0.8576 C.ar    1  LIG1       -0.0540
     50 H           5.5468    7.1289    1.6209 H       1  LIG1        0.0624
     51 C           3.6918   -0.6220   -2.1820 C.3     1  LIG1        0.0790
     52 H           4.2818   -0.9046   -1.4791 H       1  LIG1        0.0660
     53 H           3.6941   -1.2763   -2.8841 H       1  LIG1        0.0660
     54 H           2.8016   -0.5289   -1.8347 H       1  LIG1        0.0660
@<TRIPOS>BOND
     1    38    36    1
     2    36    37    1
     3    36    39    1
     4    36     2    1
     5     2     1    1
     6    53    51    1
     7     5    51    1
     8     5    35    1
     9     1    35   ar
    10     1     3   ar
    11    51    54    1
    12    51    52    1
    13    44    43    1
    14     4     3    1
    15    35    33   ar
    16     3     6   ar
    17    42    41    1
    18    43    41   ar
    19    43    45   ar
    20    41    40   ar
    21    46    45    1
    22    45    47   ar
    23    33    34    1
    24    33    32   ar
    25     6    32   ar
    26     6     7   ar
    27    40     7    1
    28    40    49   ar
    29    32    31   ar
    30    47    49   ar
    31    47    48    1
    32     7     8   ar
    33    49    50    1
    34    29    28    1
    35    31    30   ar
    36    31    10   ar
    37     8     9    1
    38     8    10   ar
    39    28    30   ar
    40    28    26   ar
    41    27    26    1
    42    30    21   ar
    43    10    11   ar
    44    26    24   ar
    45    21    22   ar
    46    21    20   ar
    47    24    25    1
    48    24    22   ar
    49    11    20   ar
    50    11    12   ar
    51    13    12    1
    52    22    23    1
    53    20    18   ar
    54    12    14   ar
    55    18    19    1
    56    18    16   ar
    57    14    15    1
    58    14    16   ar
    59    16    17    1
