@<TRIPOS>MOLECULE
?
 30 29 0 0 0
SMALL
GASTEIGER

@<TRIPOS>ATOM
      1 I           2.8323    1.0823    2.1409 I       1  LIG1        0.0000
      2 O          -3.1874    4.5300    2.5618 O.2     1  LIG1        0.0000
      3 O          -2.0670    6.0045    1.4243 O.2     1  LIG1        0.0000
      4 N          -2.1662    4.9124    1.9698 N.pl3   1  LIG1        0.0000
      5 C           3.5103    1.9086    3.9675 C.ar    2  LIG2        0.0000
      6 C           4.7597    2.4969    3.9799 C.ar    2  LIG2        0.0000
      7 H           5.2936    2.5064    3.2189 H       2  LIG2        0.0000
      8 C           5.1962    3.0799    5.1763 C.ar    2  LIG2        0.0000
      9 H           6.0392    3.4707    5.2259 H       2  LIG2        0.0000
     10 C           4.3656    3.0704    6.2921 C.ar    2  LIG2        0.0000
     11 H           4.6528    3.4696    7.0825 H       2  LIG2        0.0000
     12 C           3.1138    2.4757    6.2441 C.ar    2  LIG2        0.0000
     13 H           2.5691    2.4821    6.9988 H       2  LIG2        0.0000
     14 C           2.6619    1.8652    5.0694 C.ar    2  LIG2        0.0000
     15 H           1.8308    1.4480    5.0275 H       2  LIG2        0.0000
     16 C           1.1489    2.3511    2.0147 C.ar    1  LIG1        0.0000
     17 C           1.3544    3.6946    1.6707 C.ar    1  LIG1        0.0000
     18 H           2.2036    4.0167    1.4723 H       1  LIG1        0.0000
     19 C           0.2480    4.5258    1.6397 C.ar    1  LIG1        0.0000
     20 H           0.3397    5.4225    1.4119 H       1  LIG1        0.0000
     21 C          -0.9957    4.0051    1.9496 C.ar    1  LIG1        0.0000
     22 C          -1.2079    2.6701    2.2689 C.ar    1  LIG1        0.0000
     23 H          -2.0620    2.3522    2.4502 H       1  LIG1        0.0000
     24 C          -0.1029    1.8219    2.3076 C.ar    1  LIG1        0.0000
     25 H          -0.2026    0.9231    2.5262 H       1  LIG1        0.0000
     26 F           6.5436    4.8110    0.5144 F       3  LIG3        0.0000
     27 F           4.6524    6.0563    0.5703 F       3  LIG3        0.0000
     28 F           5.5842    5.3264    2.5344 F       3  LIG3        0.0000
     29 F           4.5689    3.8572    1.1267 F       3  LIG3        0.0000
     30 B           5.3283    5.0117    1.2011 B       3  LIG3        0.0000
@<TRIPOS>BOND
     1    26    30    1
     2    27    30    1
     3    29    30    1
     4    30    28    1
     5    20    19    1
     6     3     4    2
     7    18    17    1
     8    19    17   ar
     9    19    21   ar
    10    17    16   ar
    11    21     4    1
    12    21    22   ar
    13     4     2    2
    14    16     1    1
    15    16    24   ar
    16    22    24   ar
    17    22    23    1
    18    24    25    1
    19     7     6    1
    20     5     6   ar
    21     5    14   ar
    22     6     8   ar
    23    15    14    1
    24    14    12   ar
    25     8     9    1
    26     8    10   ar
    27    12    10   ar
    28    12    13    1
    29    10    11    1
