@<TRIPOS>MOLECULE
?
 61 63 0 0 0
SMALL
GASTEIGER

@<TRIPOS>ATOM
      1 C           9.3400   19.8825    3.1855 C.3     1  LIG1       -0.0339
      2 H           9.7920   20.4222    3.8670 H       1  LIG1        0.0258
      3 H           8.4290   19.6762    3.4836 H       1  LIG1        0.0258
      4 H           9.3027   20.3841    2.3443 H       1  LIG1        0.0258
      5 C           9.4849   17.7724    1.8594 C.3     1  LIG1       -0.0339
      6 H           9.5151   18.2827    1.0231 H       1  LIG1        0.0258
      7 H           8.5538   17.5695    2.0846 H       1  LIG1        0.0258
      8 H           9.9842   16.9360    1.7512 H       1  LIG1        0.0258
      9 C          10.1062   18.5907    2.9717 C.3     1  LIG1        0.0865
     10 C          10.1607   17.7733    4.2675 C.3     1  LIG1        0.0883
     11 H           9.2310   17.5401    4.5501 H       1  LIG1        0.0625
     12 C          10.9010   18.4028    5.4462 C.3     1  LIG1       -0.0207
     13 H          11.0775   19.3629    5.2807 H       1  LIG1        0.0292
     14 H          10.3788   18.3121    6.2817 H       1  LIG1        0.0292
     15 C          12.2037   17.6152    5.5289 C.3     1  LIG1       -0.0104
     16 H          12.5280   17.5557    6.4627 H       1  LIG1        0.0299
     17 H          12.9082   18.0265    4.9670 H       1  LIG1        0.0299
     18 C          11.8011   16.2453    4.9965 C.3     1  LIG1        0.1697
     19 C          12.9483   15.4184    4.3928 C.3     1  LIG1        0.0818
     20 H          13.5681   15.1531    5.1177 H       1  LIG1        0.0591
     21 H          12.5739   14.5905    3.9980 H       1  LIG1        0.0591
     22 C          11.1980   15.3764    6.1105 C.2     1  LIG1        0.2688
     23 C           9.5739   13.8457    7.0877 C.3     1  LIG1        0.0566
     24 H          10.2640   13.1417    7.2531 H       1  LIG1        0.0525
     25 C           8.2351   13.1881    6.7076 C.3     1  LIG1        0.0175
     26 C           8.2640   12.9296    5.2160 C.3     1  LIG1        0.0929
     27 H           7.3458   12.9409    4.8483 H       1  LIG1        0.0525
     28 H           8.6671   12.0442    5.0301 H       1  LIG1        0.0525
     29 C           9.2554   14.5914    8.4048 C.3     1  LIG1       -0.0286
     30 H           9.8881   14.3395    9.1231 H       1  LIG1        0.0287
     31 H           9.2798   15.5737    8.2770 H       1  LIG1        0.0287
     32 C           7.8250   14.1008    8.7185 C.3     1  LIG1       -0.0335
     33 H           7.3501   14.6407    9.4147 H       1  LIG1        0.0307
     34 C           7.8996   12.5945    9.0314 C.3     1  LIG1       -0.0490
     35 H           7.0545   12.2710    9.4336 H       1  LIG1        0.0268
     36 H           8.6485   12.3939    9.6465 H       1  LIG1        0.0268
     37 C           8.1363   11.9520    7.6283 C.3     1  LIG1       -0.0433
     38 H           8.9742   11.4245    7.6119 H       1  LIG1        0.0272
     39 H           7.3802   11.3691    7.3678 H       1  LIG1        0.0272
     40 C           7.1549   14.1354    7.3252 C.3     1  LIG1       -0.0231
     41 C           7.0445   15.5516    6.7510 C.3     1  LIG1       -0.0589
     42 H           6.6485   15.5114    5.8557 H       1  LIG1        0.0235
     43 H           7.9383   15.9511    6.6953 H       1  LIG1        0.0235
     44 H           6.4778   16.0982    7.3350 H       1  LIG1        0.0235
     45 C           5.7403   13.5356    7.2859 C.3     1  LIG1       -0.0589
     46 H           5.1133   14.1474    7.7241 H       1  LIG1        0.0235
     47 H           5.7374   12.6743    7.7544 H       1  LIG1        0.0235
     48 H           5.4692   13.4013    6.3538 H       1  LIG1        0.0235
     49 N           9.9941   14.7120    5.9442 N.am    1  LIG1       -0.1700
     50 O          11.4446   18.9777    2.6154 O.3     1  LIG1       -0.3866
     51 H          11.8350   18.3312    2.2492 H       1  LIG1        0.2102
     52 O          10.8851   16.5637    3.9669 O.3     1  LIG1       -0.3558
     53 O          13.6733   16.1058    3.4042 O.3     1  LIG1       -0.3917
     54 H          13.2109   16.7421    3.1101 H       1  LIG1        0.2095
     55 O          11.7953   15.2614    7.1720 O.2     1  LIG1       -0.2708
     56 O           8.3760   15.2490    3.9685 O.2     1  LIG1       -0.1549
     57 O          10.2387   13.6797    3.5909 O.2     1  LIG1       -0.1549
     58 S           9.2430   14.2218    4.4694 S.O2    1  LIG1        0.0485
     59 O          12.9712   16.9616    0.9461 O.3     2  HOH2       -0.4105
     60 H          12.5681   16.4409    0.3276 H       0  HOH0        0.2052
     61 H          13.6729   16.5050    1.0730 H       0  HOH0        0.2052
@<TRIPOS>BOND
     1    60    59    1
     2    59    61    1
     3     6     5    1
     4     8     5    1
     5     5     7    1
     6     5     9    1
     7    51    50    1
     8     4     1    1
     9    50     9    1
    10     9     1    1
    11     9    10    1
    12    54    53    1
    13     1     3    1
    14     1     2    1
    15    53    19    1
    16    57    58    2
    17    52    10    1
    18    52    18    1
    19    56    58    2
    20    21    19    1
    21    10    11    1
    22    10    12    1
    23    19    18    1
    24    19    20    1
    25    58    26    1
    26    58    49    1
    27    27    26    1
    28    17    15    1
    29    18    15    1
    30    18    22    1
    31    28    26    1
    32    26    25    1
    33    13    12    1
    34    12    15    1
    35    12    14    1
    36    15    16    1
    37    42    41    1
    38    49    22   am
    39    49    23    1
    40    22    55    2
    41    48    45    1
    42    43    41    1
    43    25    23    1
    44    25    40    1
    45    25    37    1
    46    41    40    1
    47    41    44    1
    48    23    24    1
    49    23    29    1
    50    45    40    1
    51    45    46    1
    52    45    47    1
    53    40    32    1
    54    39    37    1
    55    38    37    1
    56    37    34    1
    57    31    29    1
    58    29    32    1
    59    29    30    1
    60    32    34    1
    61    32    33    1
    62    34    35    1
    63    34    36    1
