@<TRIPOS>MOLECULE
C21 H23 N O5 S
 51 52 0 0 0
SMALL
GASTEIGER

@<TRIPOS>ATOM
      1 S           7.0092   37.5186    8.4612 S.O2    1  LIG1        0.1020
      2 O           5.5518   37.3720    6.0099 O.2     1  LIG1       -0.4710
      3 O           6.2762   37.8448    3.2350 O.3     1  LIG1       -0.4533
      4 O           5.6731   38.7474    1.2701 O.2     1  LIG1       -0.2511
      5 O           7.7725   36.5692    7.6943 O.2     1  LIG1       -0.1462
      6 O           7.6487   38.1458    9.5923 O.2     1  LIG1       -0.1462
      7 N           6.5262   38.7775    7.5276 N.2     1  LIG1       -0.0906
      8 C           4.7424   41.9502    4.1118 C.ar    1  LIG1       -0.0613
      9 C           5.1064   42.1358    5.4335 C.ar    1  LIG1       -0.0610
     10 C           4.6574   40.6930    3.5613 C.ar    1  LIG1       -0.0542
     11 C           5.4486   41.0365    6.2012 C.ar    1  LIG1       -0.0491
     12 C           4.9790   39.5825    4.3172 C.ar    1  LIG1        0.0083
     13 C           5.3928   39.7620    5.6530 C.ar    1  LIG1        0.0446
     14 C           4.9644   38.1848    3.7796 C.3     1  LIG1        0.1625
     15 C           5.8454   38.6080    6.4383 C.2     1  LIG1        0.2419
     16 C           4.6744   37.2053    4.8525 C.3     1  LIG1        0.1323
     17 C           6.4983   38.2189    1.9438 C.2     1  LIG1        0.3046
     18 C           7.8805   37.8715    1.5271 C.3     1  LIG1        0.0333
     19 C           5.5348   36.7632    9.0289 C.ar    1  LIG1        0.1126
     20 C           4.8504   37.3464   10.1005 C.ar    1  LIG1       -0.0346
     21 C           5.0409   35.6070    8.4361 C.ar    1  LIG1       -0.0346
     22 C           3.6854   36.7504   10.5560 C.ar    1  LIG1       -0.0570
     23 C           3.8868   35.0411    8.9091 C.ar    1  LIG1       -0.0570
     24 C           3.1806   35.5975    9.9703 C.ar    1  LIG1       -0.0503
     25 C           1.9028   34.9881   10.4656 C.3     1  LIG1       -0.0397
     26 C           9.1352   41.1162    3.1775 C.3     1  LIG1       -0.0531
     27 C           8.6692   40.4834    4.3431 C.3     1  LIG1       -0.0531
     28 C           9.1425   41.0348    5.6331 C.3     1  LIG1       -0.0531
     29 H           4.5506   42.6934    3.5848 H       1  LIG1        0.0618
     30 H           5.1222   42.9888    5.8021 H       1  LIG1        0.0618
     31 H           4.3844   40.5916    2.6774 H       1  LIG1        0.0622
     32 H           5.7156   41.1491    7.0839 H       1  LIG1        0.0625
     33 H           4.2873   38.1107    3.0754 H       1  LIG1        0.0820
     34 H           3.7521   37.3079    5.1354 H       1  LIG1        0.0738
     35 H           4.7800   36.3100    4.5003 H       1  LIG1        0.0738
     36 H           7.8489   37.2800    0.7712 H       1  LIG1        0.0342
     37 H           8.3343   37.4361    2.2537 H       1  LIG1        0.0342
     38 H           8.3537   38.6738    1.2888 H       1  LIG1        0.0342
     39 H           5.1731   38.1218   10.5008 H       1  LIG1        0.0637
     40 H           5.4923   35.2173    7.7224 H       1  LIG1        0.0637
     41 H           3.2303   37.1295   11.2720 H       1  LIG1        0.0621
     42 H           3.5677   34.2640    8.5112 H       1  LIG1        0.0621
     43 H           2.1042   34.2918   11.0983 H       1  LIG1        0.0278
     44 H           1.4186   34.6152    9.7261 H       1  LIG1        0.0278
     45 H           1.3700   35.6633   10.8905 H       1  LIG1        0.0278
     46 H          10.0587   40.8536    3.0366 H       1  LIG1        0.0265
     47 H           8.6219   40.7867    2.4239 H       1  LIG1        0.0265
     48 H           8.9253   39.5490    4.3020 H       1  LIG1        0.0265
     49 H           7.6997   40.5191    4.3372 H       1  LIG1        0.0265
     50 H          10.0599   40.7588    5.7857 H       1  LIG1        0.0265
     51 H           8.5989   40.6808    6.3538 H       1  LIG1        0.0265
@<TRIPOS>BOND
     1    36    18    1
     2     4    17    2
     3    38    18    1
     4    18    17    1
     5    18    37    1
     6    17     3    1
     7    47    26    1
     8    31    10    1
     9    46    26    1
    10    33    14    1
    11    26    27    1
    12     3    14    1
    13    10     8   ar
    14    10    12   ar
    15    29     8    1
    16    14    12    1
    17    14    16    1
    18     8     9   ar
    19    48    27    1
    20    12    13   ar
    21    49    27    1
    22    27    28    1
    23    35    16    1
    24    16    34    1
    25    16     2    1
    26     9    30    1
    27     9    11   ar
    28    28    50    1
    29    28    51    1
    30    13    11   ar
    31    13    15    1
    32     2    15    1
    33    11    32    1
    34    15     7    2
    35     7     1    1
    36     5     1    2
    37    40    21    1
    38    21    23   ar
    39    21    19   ar
    40     1    19    1
    41     1     6    2
    42    42    23    1
    43    23    24   ar
    44    19    20   ar
    45    44    25    1
    46    24    25    1
    47    24    22   ar
    48    20    39    1
    49    20    22   ar
    50    25    45    1
    51    25    43    1
    52    22    41    1
