@<TRIPOS>MOLECULE
?
 53 57 0 0 0
SMALL
GASTEIGER

@<TRIPOS>ATOM
      1 C           8.6902   -0.7860    3.7800 C.ar    1  LIG1       -0.0346
      2 H           8.1360   -1.1692    4.4211 H       1  LIG1        0.0639
      3 C           9.4824    1.4635    1.1203 C.ar    1  LIG1        0.0539
      4 C          10.5989    1.6793    0.3132 C.ar    1  LIG1       -0.0362
      5 H          11.3626    1.1591    0.4290 H       1  LIG1        0.0639
      6 C          10.5751    2.6554   -0.6502 C.ar    1  LIG1       -0.0458
      7 H          11.3138    2.7919   -1.1972 H       1  LIG1        0.0629
      8 C           9.4418    3.4358   -0.8012 C.ar    1  LIG1        0.0186
      9 C           8.3280    3.2367   -0.0352 C.ar    1  LIG1       -0.0386
     10 H           7.5753    3.7690   -0.1623 H       1  LIG1        0.0635
     11 C           8.3183    2.2326    0.9393 C.ar    1  LIG1        0.0017
     12 C           7.1734    2.0018    1.7807 C.ar    1  LIG1       -0.0279
     13 H           6.4116    2.5248    1.6738 H       1  LIG1        0.0644
     14 C           7.1928    1.0420    2.7162 C.ar    1  LIG1        0.0760
     15 C           8.3528    0.2266    2.9115 C.ar    1  LIG1        0.0693
     16 C          10.0146   -1.1301    3.5190 C.ar    1  LIG1       -0.0432
     17 H          10.4987   -1.7879    3.9650 H       1  LIG1        0.0633
     18 C          10.4857   -0.3544    2.5124 C.ar    1  LIG1        0.0105
     19 H          11.3428   -0.3879    2.1527 H       1  LIG1        0.0813
     20 C           6.2878    1.1937    5.0259 C.3     1  LIG1        0.0600
     21 H           7.2228    1.0759    5.2563 H       1  LIG1        0.0532
     22 H           5.7710    0.5853    5.5764 H       1  LIG1        0.0532
     23 C           5.8848    2.6034    5.3553 C.ar    1  LIG1       -0.0283
     24 C           4.9365    3.3098    4.6345 C.ar    1  LIG1       -0.0556
     25 H           4.5465    2.9227    3.8844 H       1  LIG1        0.0621
     26 C           4.5635    4.5856    5.0180 C.ar    1  LIG1       -0.0431
     27 H           3.9274    5.0529    4.5267 H       1  LIG1        0.0632
     28 C           5.1347    5.1582    6.1233 C.ar    1  LIG1        0.0410
     29 C           6.0785    4.4856    6.8485 C.ar    1  LIG1       -0.0431
     30 H           6.4669    4.8807    7.5951 H       1  LIG1        0.0632
     31 C           6.4471    3.2196    6.4638 C.ar    1  LIG1       -0.0556
     32 H           7.0896    2.7638    6.9574 H       1  LIG1        0.0621
     33 C           5.0671   -1.4993    2.6586 C.ar    1  LIG1        0.1087
     34 C           5.4358   -2.3811    3.6642 C.ar    1  LIG1       -0.0348
     35 H           5.5480   -2.0768    4.5358 H       1  LIG1        0.0637
     36 C           5.6322   -3.7036    3.3647 C.ar    1  LIG1       -0.0570
     37 H           5.8759   -4.2934    4.0410 H       1  LIG1        0.0621
     38 C           5.4744   -4.1768    2.0699 C.ar    1  LIG1       -0.0503
     39 C           5.1251   -3.2743    1.0792 C.ar    1  LIG1       -0.0570
     40 H           5.0281   -3.5771    0.2043 H       1  LIG1        0.0621
     41 C           4.9186   -1.9390    1.3549 C.ar    1  LIG1       -0.0348
     42 H           4.6844   -1.3458    0.6775 H       1  LIG1        0.0637
     43 C           5.6873   -5.6430    1.7771 C.3     1  LIG1       -0.0397
     44 H           4.9457   -6.1482    2.1187 H       1  LIG1        0.0278
     45 H           6.4971   -5.9386    2.1970 H       1  LIG1        0.0278
     46 H           5.7525   -5.7736    0.8273 H       1  LIG1        0.0278
     47 N           6.1009    0.8251    3.6115 N.pl3   1  LIG1       -0.1967
     48 N           9.4745    0.4893    2.1174 N.ar    1  LIG1       -0.3141
     49 O           3.8358    0.1545    4.2205 O.2     1  LIG1       -0.1498
     50 O           4.2846    0.8296    1.8890 O.2     1  LIG1       -0.1498
     51 S           4.7029    0.1653    3.0845 S.O2    1  LIG1        0.0750
     52 CL          4.6492    6.7615    6.5887 Cl      1  LIG1       -0.0835
     53 BR          9.4693    4.8318   -2.0930 Br      1  LIG1       -0.0503
@<TRIPOS>BOND
     1    53     8    1
     2     7     6    1
     3     8     6   ar
     4     8     9   ar
     5     6     4   ar
     6    10     9    1
     7     9    11   ar
     8    40    39    1
     9     4     5    1
    10     4     3   ar
    11    42    41    1
    12    46    43    1
    13    11     3   ar
    14    11    12   ar
    15    39    41   ar
    16    39    38   ar
    17     3    48   ar
    18    41    33   ar
    19    13    12    1
    20    43    38    1
    21    43    44    1
    22    43    45    1
    23    12    14   ar
    24    50    51    2
    25    38    36   ar
    26    48    18   ar
    27    48    15   ar
    28    19    18    1
    29    18    16   ar
    30    33    51    1
    31    33    34   ar
    32    14    15   ar
    33    14    47    1
    34    15     1   ar
    35    51    47    1
    36    51    49    2
    37    36    34   ar
    38    36    37    1
    39    16     1   ar
    40    16    17    1
    41    47    20    1
    42    34    35    1
    43     1     2    1
    44    25    24    1
    45    27    26    1
    46    24    26   ar
    47    24    23   ar
    48    26    28   ar
    49    20    21    1
    50    20    23    1
    51    20    22    1
    52    23    31   ar
    53    28    52    1
    54    28    29   ar
    55    31    29   ar
    56    31    32    1
    57    29    30    1
