@<TRIPOS>MOLECULE
?
 36 38 0 0 0
SMALL
GASTEIGER

@<TRIPOS>ATOM
      1 BR          0.6620    7.4597    6.3905 Br      1  LIG1       -0.0757
      2 C           0.2237    4.0695   10.2329 C.ar    1  LIG1        0.0425
      3 C           0.5320    3.0368   11.0950 C.ar    1  LIG1       -0.0399
      4 H          -0.1287    2.4143   11.3787 H       1  LIG1        0.0636
      5 C           1.8336    2.9457   11.5279 C.ar    1  LIG1       -0.0600
      6 H           2.0755    2.2456   12.1226 H       1  LIG1        0.0618
      7 C           2.8157    3.8610   11.1150 C.ar    1  LIG1       -0.0613
      8 H           3.7096    3.7718   11.4260 H       1  LIG1        0.0618
      9 C           2.4780    4.8965   10.2547 C.ar    1  LIG1       -0.0535
     10 H           3.1300    5.5248    9.9673 H       1  LIG1        0.0622
     11 C           1.1703    4.9886    9.8254 C.ar    1  LIG1        0.0157
     12 C           0.5009    5.9970    8.9215 C.3     1  LIG1        0.1881
     13 C          -0.9328    5.4162    8.8032 C.2     1  LIG1        0.2575
     14 C          -2.2361    3.5992    9.8636 C.3     1  LIG1        0.0084
     15 H          -2.9754    4.0132    9.3707 H       1  LIG1        0.0433
     16 H          -2.4486    3.5856   10.8203 H       1  LIG1        0.0433
     17 H          -2.1048    2.6810    9.5453 H       1  LIG1        0.0433
     18 C           1.3120    6.0882    7.6301 C.3     1  LIG1        0.1189
     19 H           2.2577    6.3054    7.8683 H       1  LIG1        0.0537
     20 C           1.3076    4.7996    6.8389 C.2     1  LIG1        0.1801
     21 C           2.4045    4.5281    5.8858 C.ar    1  LIG1        0.0186
     22 C           2.1584    3.6079    4.8745 C.ar    1  LIG1       -0.0512
     23 H           1.3111    3.1813    4.8218 H       1  LIG1        0.0625
     24 C           3.1309    3.3093    3.9433 C.ar    1  LIG1       -0.0611
     25 H           2.9400    2.7178    3.2248 H       1  LIG1        0.0618
     26 C           4.3816    3.8746    4.0633 C.ar    1  LIG1       -0.0617
     27 H           5.0639    3.6419    3.4449 H       1  LIG1        0.0618
     28 C           4.6536    4.7715    5.0728 C.ar    1  LIG1       -0.0611
     29 H           5.5199    5.1554    5.1419 H       1  LIG1        0.0618
     30 C           3.6733    5.1195    5.9858 C.ar    1  LIG1       -0.0512
     31 H           3.8573    5.7508    6.6715 H       1  LIG1        0.0625
     32 N          -1.0209    4.3642    9.6490 N.am    1  LIG1       -0.2714
     33 O          -1.8336    5.8991    8.1321 O.2     1  LIG1       -0.2717
     34 O           0.2790    7.2633    9.5144 O.3     1  LIG1       -0.3735
     35 H           1.0166    7.6337    9.6690 H       1  LIG1        0.2113
     36 O           0.3964    4.0210    6.9753 O.2     1  LIG1       -0.2907
@<TRIPOS>BOND
     1    25    24    1
     2    27    26    1
     3    24    26   ar
     4    24    22   ar
     5    26    28   ar
     6    23    22    1
     7    22    21   ar
     8    28    29    1
     9    28    30   ar
    10    21    30   ar
    11    21    20    1
    12    30    31    1
    13     1    18    1
    14    20    36    2
    15    20    18    1
    16    18    19    1
    17    18    12    1
    18    33    13    2
    19    13    12    1
    20    13    32   am
    21    12    34    1
    22    12    11    1
    23    15    14    1
    24    34    35    1
    25    17    14    1
    26    32    14    1
    27    32     2    1
    28    11     2   ar
    29    11     9   ar
    30    14    16    1
    31    10     9    1
    32     2     3   ar
    33     9     7   ar
    34     3     4    1
    35     3     5   ar
    36     7     8    1
    37     7     5   ar
    38     5     6    1
