@<TRIPOS>MOLECULE
?
 38 42 0 0 0
SMALL
GASTEIGER

@<TRIPOS>ATOM
      1 CL          7.4433    1.4908   15.4563 Cl      1  LIG1       -0.0813
      2 N           7.0119    4.3096   14.7822 N.ar    1  LIG1       -0.2532
      3 C           5.8223    6.1847   13.9028 C.ar    1  LIG1       -0.0092
      4 C           6.9590    5.5882   14.4636 C.ar    1  LIG1        0.0330
      5 H           7.7245    6.1275   14.6210 H       1  LIG1        0.0833
      6 C           5.9105    3.5475   14.5441 C.ar    1  LIG1        0.0898
      7 C           5.9783    2.1526   14.8182 C.ar    1  LIG1        0.0669
      8 C           4.9274    1.3215   14.5782 C.ar    1  LIG1       -0.0413
      9 H           5.0030    0.3922   14.7594 H       1  LIG1        0.0633
     10 C           3.7298    1.8454   14.0597 C.ar    1  LIG1       -0.0597
     11 H           2.9965    1.2636   13.8975 H       1  LIG1        0.0618
     12 C           3.6051    3.1743   13.7875 C.ar    1  LIG1       -0.0519
     13 H           2.7850    3.5102   13.4445 H       1  LIG1        0.0624
     14 C           4.6898    4.0592   14.0108 C.ar    1  LIG1        0.0098
     15 C           4.6779    5.4387   13.6900 C.ar    1  LIG1       -0.0029
     16 C           3.6636    6.3173   13.0837 C.ar    1  LIG1       -0.0128
     17 C           2.3433    6.1006   12.6906 C.ar    1  LIG1       -0.0537
     18 H           1.9381    5.2489   12.8061 H       1  LIG1        0.0624
     19 C           1.6321    7.1486   12.1281 C.ar    1  LIG1       -0.0612
     20 H           0.7321    7.0102   11.8576 H       1  LIG1        0.0618
     21 C           2.2129    8.3949   11.9530 C.ar    1  LIG1       -0.0614
     22 H           1.7079    9.0981   11.5628 H       1  LIG1        0.0618
     23 C           3.5236    8.6252   12.3416 C.ar    1  LIG1       -0.0571
     24 H           3.9233    9.4780   12.2179 H       1  LIG1        0.0621
     25 C           4.2351    7.5873   12.9131 C.ar    1  LIG1       -0.0278
     26 C           5.6722    7.5973   13.4005 C.3     1  LIG1        0.0368
     27 H           5.7712    8.2420   14.1590 H       1  LIG1        0.0447
     28 C           6.6693    7.9295   12.3045 C.ar    1  LIG1       -0.0355
     29 C           6.7784    7.0846   11.2094 C.ar    1  LIG1       -0.0577
     30 H           6.2283    6.3118   11.1569 H       1  LIG1        0.0621
     31 C           7.6795    7.3521   10.1894 C.ar    1  LIG1       -0.0615
     32 H           7.7470    6.7644    9.4469 H       1  LIG1        0.0618
     33 C           8.4801    8.4780   10.2587 C.ar    1  LIG1       -0.0617
     34 H           9.0989    8.6659    9.5624 H       1  LIG1        0.0618
     35 C           8.3776    9.3227   11.3367 C.ar    1  LIG1       -0.0615
     36 H           8.9305   10.0934   11.3849 H       1  LIG1        0.0618
     37 C           7.4681    9.0573   12.3614 C.ar    1  LIG1       -0.0577
     38 H           7.3975    9.6520   13.0995 H       1  LIG1        0.0621
@<TRIPOS>BOND
     1    32    31    1
     2    34    33    1
     3    31    33   ar
     4    31    29   ar
     5    33    35   ar
     6    30    29    1
     7    29    28   ar
     8    35    36    1
     9    35    37   ar
    10    22    21    1
    11    20    19    1
    12    21    19   ar
    13    21    23   ar
    14    19    17   ar
    15    24    23    1
    16    28    37   ar
    17    28    26    1
    18    23    25   ar
    19    37    38    1
    20    17    18    1
    21    17    16   ar
    22    25    16   ar
    23    25    26    1
    24    16    15    1
    25    26     3    1
    26    26    27    1
    27    13    12    1
    28    15     3   ar
    29    15    14   ar
    30    12    14   ar
    31    12    10   ar
    32    11    10    1
    33     3     4   ar
    34    14     6   ar
    35    10     8   ar
    36     4     5    1
    37     4     2   ar
    38     6     2   ar
    39     6     7   ar
    40     8     9    1
    41     8     7   ar
    42     7     1    1
