@<TRIPOS>MOLECULE
C16 H6 O12 S4, 2(C10 H26 N2), 4(H2 O)
 63 60 0 0 0
SMALL
GASTEIGER

@<TRIPOS>ATOM
      1 S           4.0838    5.7382   19.4391 S.3     1  LIG1        0.1403
      2 O           4.1311    5.3678   18.0295 O.2     1  LIG1       -0.1397
      3 O           4.7208    4.7263   20.2557 O.3     1  LIG1       -0.0426
      4 O           4.5776    7.0505   19.7145 O.2     1  LIG1       -0.1397
      5 C           2.3479    5.7121   19.8658 C.ar    1  LIG1        0.1298
      6 C           1.9086    5.8122   21.1982 C.ar    1  LIG1        0.0204
      7 C           0.5036    5.7352   21.4552 C.ar    1  LIG1        0.0021
      8 C          -0.4254    5.5804   20.3746 C.ar    1  LIG1        0.0108
      9 C           0.0811    5.5311   19.0608 C.ar    1  LIG1        0.1292
     10 C           1.4480    5.5927   18.8183 C.ar    1  LIG1       -0.0057
     11 H           1.7663    5.5419   17.9563 H       1  LIG1        0.0658
     12 S          -0.9841    5.3387   17.6412 S.3     1  LIG1        0.1403
     13 O          -1.9364    6.4383   17.6476 O.2     1  LIG1       -0.1397
     14 O          -0.1132    5.3786   16.4794 O.2     1  LIG1       -0.1397
     15 O          -1.6358    4.0555   17.8135 O.3     1  LIG1       -0.0426
     16 C          -1.8223    5.4826   20.6844 C.2     1  LIG1       -0.0521
     17 C          -2.2746    5.5650   21.9560 C.2     1  LIG1       -0.0611
     18 H          -3.1969    5.4910   22.1171 H       1  LIG1        0.0618
     19 H          -2.4321    5.3601   19.9777 H       1  LIG1        0.0624
     20 O           8.0159    5.4217   14.3429 O.3     2  HOH2       -0.4105
     21 H           8.6176    5.6528   14.8431 H       0  HOH0        0.2052
     22 H           8.0669    5.9839   13.7542 H       0  HOH0        0.2052
     23 O           5.5956    8.3859   17.4033 O.3     3  HOH3       -0.4105
     24 H           6.3331    8.0402   17.4694 H       0  HOH0        0.2052
     25 H           5.0421    7.9323   17.8029 H       0  HOH0        0.2052
     26 N           5.4261    5.1060   15.6390 N.4     4  LIG4        0.2185
     27 C           4.5675    5.7398   14.6076 C.3     4  LIG4       -0.0354
     28 C           3.0897    5.0952   14.6967 C.3     4  LIG4       -0.0126
     29 C           2.1615    5.6004   13.6616 C.3     4  LIG4       -0.0483
     30 C           2.6122    5.3678   12.2265 C.3     4  LIG4       -0.0529
     31 C           1.5543    5.6312   11.1967 C.3     4  LIG4       -0.0531
     32 C           2.0728    5.6081    9.7820 C.3     4  LIG4       -0.0531
     33 C           0.9613    5.7552    8.7574 C.3     4  LIG4       -0.0529
     34 C           1.4424    5.8730    7.3445 C.3     4  LIG4       -0.0483
     35 C           0.2950    6.0617    6.3330 C.3     4  LIG4       -0.0126
     36 C           0.8189    6.4398    4.9953 C.3     4  LIG4       -0.0354
     37 N          -0.2527    6.8680    4.1024 N.4     4  LIG4        0.2185
     38 H          -0.7123    6.1379    3.8244 H       4  LIG4        0.1994
     39 H           0.1035    7.3393    3.3965 H       4  LIG4        0.1994
     40 H          -0.8157    7.3932    4.5739 H       4  LIG4        0.1994
     41 H           1.4660    7.1845    5.0874 H       4  LIG4        0.0813
     42 H           1.2628    5.6712    4.6034 H       4  LIG4        0.0813
     43 H          -0.2733    6.7933    6.6484 H       4  LIG4        0.0317
     44 H          -0.2157    5.2392    6.2500 H       4  LIG4        0.0317
     45 H           1.9506    5.0713    7.1117 H       4  LIG4        0.0267
     46 H           2.0399    6.6470    7.3006 H       4  LIG4        0.0267
     47 H           0.4643    6.5746    8.9826 H       4  LIG4        0.0265
     48 H           0.3604    4.9681    8.8173 H       4  LIG4        0.0265
     49 H           2.5339    4.7640    9.6259 H       4  LIG4        0.0265
     50 H           2.7189    6.3328    9.6731 H       4  LIG4        0.0265
     51 H           0.8727    4.9311   11.2607 H       4  LIG4        0.0265
     52 H           1.1430    6.5045   11.3758 H       4  LIG4        0.0265
     53 H           3.3736    5.9708   12.0692 H       4  LIG4        0.0265
     54 H           2.9097    4.4367   12.1637 H       4  LIG4        0.0265
     55 H           2.0381    6.5738   13.7867 H       4  LIG4        0.0267
     56 H           1.3110    5.1414   13.7601 H       4  LIG4        0.0267
     57 H           2.6894    5.2554   15.5808 H       4  LIG4        0.0317
     58 H           3.1765    4.1317   14.5510 H       4  LIG4        0.0317
     59 H           4.5284    6.6739   14.7487 H       4  LIG4        0.0813
     60 H           4.9371    5.5719   13.7306 H       4  LIG4        0.0813
     61 H           5.1375    5.3370   16.4366 H       4  LIG4        0.1994
     62 H           6.2665    5.3755   15.5336 H       4  LIG4        0.1994
     63 H           5.3782    4.2203   15.5425 H       4  LIG4        0.1994
@<TRIPOS>BOND
     1    39    37    1
     2    38    37    1
     3    37    40    1
     4    37    36    1
     5    42    36    1
     6    36    41    1
     7    36    35    1
     8    44    35    1
     9    35    43    1
    10    35    34    1
    11    45    34    1
    12    46    34    1
    13    34    33    1
    14    33    48    1
    15    33    47    1
    16    33    32    1
    17    49    32    1
    18    50    32    1
    19    32    31    1
    20    31    51    1
    21    31    52    1
    22    31    30    1
    23    53    30    1
    24    54    30    1
    25    30    29    1
    26    29    56    1
    27    29    55    1
    28    29    28    1
    29    60    27    1
    30    22    20    1
    31    20    21    1
    32    58    28    1
    33    27    28    1
    34    27    59    1
    35    27    26    1
    36    28    57    1
    37    62    26    1
    38    63    26    1
    39    26    61    1
    40    14    12    2
    41    23    24    1
    42    23    25    1
    43    12    13    2
    44    12    15    1
    45    12     9    1
    46    11    10    1
    47     2     1    2
    48    10     9   ar
    49    10     5   ar
    50     9     8   ar
    51     1     4    2
    52     1     5    1
    53     1     3    1
    54     5     6   ar
    55    19    16    1
    56     8    16    1
    57     8     7   ar
    58    16    17    2
    59     6     7   ar
    60    17    18    1
