@<TRIPOS>MOLECULE
3-Methoxy-1-(naphthalen-2-yl)-2-phenylpropan-1-one
 40 42 0 0 0
SMALL
GASTEIGER

@<TRIPOS>ATOM
      1 O           3.8014    3.5349    3.1323 O.2     1  LIG1       -0.2913
      2 O           4.2870    1.8672    5.8108 O.3     1  LIG1       -0.3819
      3 C           3.1444    6.0630    5.6087 C.ar    1  LIG1       -0.0435
      4 H           2.5025    5.6165    6.1133 H       1  LIG1        0.0631
      5 C           3.4789    7.3940    5.9387 C.ar    1  LIG1       -0.0172
      6 C           3.7469    5.4106    4.5572 C.ar    1  LIG1        0.0187
      7 C           4.4604    8.0759    5.1681 C.ar    1  LIG1       -0.0178
      8 C           4.7316    6.0984    3.7900 C.ar    1  LIG1       -0.0507
      9 H           5.1496    5.6648    3.0809 H       1  LIG1        0.0625
     10 C           3.3884    4.0219    4.1762 C.2     1  LIG1        0.1727
     11 C           0.7751    2.8151    3.2097 C.ar    1  LIG1       -0.0578
     12 H           1.4787    2.6275    2.6315 H       1  LIG1        0.0620
     13 C           2.4669    3.1981    5.0764 C.3     1  LIG1        0.0704
     14 H           2.4509    3.6105    5.9656 H       1  LIG1        0.0452
     15 C           1.0445    3.1626    4.5334 C.ar    1  LIG1       -0.0346
     16 C          -0.0255    3.4379    5.3801 C.ar    1  LIG1       -0.0578
     17 H           0.1387    3.6805    6.2631 H       1  LIG1        0.0620
     18 C           2.8673    8.0639    7.0239 C.ar    1  LIG1       -0.0540
     19 H           2.2191    7.6259    7.5278 H       1  LIG1        0.0624
     20 C          -1.3301    3.3559    4.9267 C.ar    1  LIG1       -0.0615
     21 H          -2.0358    3.5339    5.5069 H       1  LIG1        0.0618
     22 C           3.0111    1.7866    5.2083 C.3     1  LIG1        0.0612
     23 H           2.4165    1.2496    5.7559 H       1  LIG1        0.0570
     24 H           3.0807    1.3729    4.3342 H       1  LIG1        0.0570
     25 C          -1.5880    3.0087    3.6060 C.ar    1  LIG1       -0.0617
     26 H          -2.4648    2.9524    3.3000 H       1  LIG1        0.0618
     27 C           5.0645    7.3818    4.0854 C.ar    1  LIG1       -0.0534
     28 H           5.7030    7.8158    3.5665 H       1  LIG1        0.0624
     29 C          -0.5300    2.7458    2.7451 C.ar    1  LIG1       -0.0615
     30 H          -0.6972    2.5242    1.8577 H       1  LIG1        0.0618
     31 C           4.7931    9.4030    5.5216 C.ar    1  LIG1       -0.0540
     32 H           5.4274    9.8652    5.0233 H       1  LIG1        0.0624
     33 C           4.1937   10.0153    6.5869 C.ar    1  LIG1       -0.0612
     34 H           4.4345   10.8848    6.8149 H       1  LIG1        0.0618
     35 C           3.2168    9.3427    7.3395 C.ar    1  LIG1       -0.0612
     36 H           2.8075    9.7719    8.0557 H       1  LIG1        0.0618
     37 C           4.9363    0.6126    5.8375 C.3     1  LIG1        0.0365
     38 H           5.0982    0.3166    4.9386 H       1  LIG1        0.0523
     39 H           4.3795   -0.0267    6.2890 H       1  LIG1        0.0523
     40 H           5.7713    0.6948    6.3034 H       1  LIG1        0.0523
@<TRIPOS>BOND
     1    30    29    1
     2    12    11    1
     3    29    11   ar
     4    29    25   ar
     5     9     8    1
     6     1    10    2
     7    11    15   ar
     8    26    25    1
     9    28    27    1
    10    25    20   ar
    11     8    27   ar
    12     8     6   ar
    13    27     7   ar
    14    10     6    1
    15    10    13    1
    16    24    22    1
    17    15    13    1
    18    15    16   ar
    19     6     3   ar
    20    20    16   ar
    21    20    21    1
    22    38    37    1
    23    32    31    1
    24    13    22    1
    25    13    14    1
    26     7    31   ar
    27     7     5   ar
    28    22    23    1
    29    22     2    1
    30    16    17    1
    31    31    33   ar
    32     3     5   ar
    33     3     4    1
    34     2    37    1
    35    37    39    1
    36    37    40    1
    37     5    18   ar
    38    33    34    1
    39    33    35   ar
    40    18    35   ar
    41    18    19    1
    42    35    36    1
