@<TRIPOS>MOLECULE
?
 47 49 0 0 0
SMALL
GASTEIGER

@<TRIPOS>ATOM
      1 C          -8.1059   -1.1419   -5.5328 C.3     1  LIG1        0.0644
      2 H          -7.4885   -0.8772   -6.2461 H       1  LIG1        0.0600
      3 C          -8.9151   -2.3277   -6.0335 C.3     1  LIG1        0.0112
      4 H          -9.5180   -2.0198   -6.7272 H       1  LIG1        0.0326
      5 H          -8.3078   -2.9680   -6.4366 H       1  LIG1        0.0326
      6 C          -9.7252   -3.0332   -4.9669 C.3     1  LIG1        0.1082
      7 H         -10.0699   -3.8730   -5.3353 H       1  LIG1        0.0737
      8 C          -8.9249   -3.3411   -3.7001 C.3     1  LIG1       -0.0029
      9 H          -8.2283   -3.9808   -3.9574 H       1  LIG1        0.0337
     10 C          -8.2034   -2.0875   -3.1990 C.3     1  LIG1       -0.0232
     11 H          -8.8916   -1.4162   -3.0104 H       1  LIG1        0.0314
     12 C          -7.4316   -2.3303   -1.8773 C.3     1  LIG1       -0.0211
     13 H          -8.0477   -2.6233   -1.1875 H       1  LIG1        0.0315
     14 H          -6.7714   -3.0280   -2.0079 H       1  LIG1        0.0315
     15 C          -6.7662   -1.0890   -1.4531 C.2     1  LIG1        0.0109
     16 C          -5.8905   -0.3563   -2.4459 C.3     1  LIG1        0.2375
     17 C          -6.6358   -0.1865   -3.7571 C.3     1  LIG1        0.0253
     18 H          -6.0196    0.1549   -4.4246 H       1  LIG1        0.0338
     19 H          -7.3351    0.4751   -3.6362 H       1  LIG1        0.0338
     20 C          -7.2681   -1.4853   -4.2851 C.3     1  LIG1        0.0038
     21 C          -6.8967   -0.3305   -0.3560 C.2     1  LIG1        0.0390
     22 C          -6.1761    0.9140   -0.5784 C.2     1  LIG1        0.3376
     23 C          -7.6212   -0.6152    0.9191 C.3     1  LIG1       -0.0328
     24 H          -8.0344   -1.4801    0.8663 H       1  LIG1        0.0280
     25 H          -8.2959    0.0529    1.0582 H       1  LIG1        0.0280
     26 H          -6.9997   -0.6003    1.6505 H       1  LIG1        0.0280
     27 C          -6.1609   -2.4645   -4.7193 C.3     1  LIG1       -0.0567
     28 H          -5.6096   -2.0488   -5.3854 H       1  LIG1        0.0236
     29 H          -6.5610   -3.2578   -5.0837 H       1  LIG1        0.0236
     30 H          -5.6234   -2.6969   -3.9587 H       1  LIG1        0.0236
     31 C          -9.7865   -4.0344   -2.6517 C.3     1  LIG1       -0.0588
     32 H          -9.2578   -4.2171   -1.8716 H       1  LIG1        0.0234
     33 H         -10.1255   -4.8580   -3.0090 H       1  LIG1        0.0234
     34 H         -10.5222   -3.4631   -2.4125 H       1  LIG1        0.0234
     35 C         -11.9383   -2.1966   -5.3242 C.2     1  LIG1        0.3042
     36 C         -12.9845   -1.2852   -4.7861 C.3     1  LIG1        0.0332
     37 H         -13.7495   -1.2981   -5.3659 H       1  LIG1        0.0342
     38 H         -12.6365   -0.3925   -4.7346 H       1  LIG1        0.0342
     39 H         -13.2445   -1.5782   -3.9087 H       1  LIG1        0.0342
     40 O          -8.9340   -0.0207   -5.2338 O.3     1  LIG1       -0.3911
     41 H          -9.4165    0.1427   -5.8762 H       1  LIG1        0.2098
     42 O         -10.8577   -2.1973   -4.5454 O.3     1  LIG1       -0.4612
     43 O         -12.0167   -2.8325   -6.3379 O.2     1  LIG1       -0.2512
     44 O          -6.0670    1.8913    0.1474 O.2     1  LIG1       -0.2452
     45 O          -5.6422    0.9373   -1.8199 O.3     1  LIG1       -0.4253
     46 O          -4.6654   -0.9708   -2.6845 O.3     1  LIG1       -0.3519
     47 H          -4.2897   -1.1154   -1.9703 H       1  LIG1        0.2142
@<TRIPOS>BOND
     1     4     3    1
     2     5     3    1
     3    43    35    2
     4     2     1    1
     5     3     1    1
     6     3     6    1
     7    41    40    1
     8     1    40    1
     9     1    20    1
    10    28    27    1
    11    37    36    1
    12     7     6    1
    13    35    36    1
    14    35    42    1
    15    29    27    1
    16     6    42    1
    17     6     8    1
    18    36    38    1
    19    36    39    1
    20    27    20    1
    21    27    30    1
    22    18    17    1
    23    20    17    1
    24    20    10    1
    25     9     8    1
    26    17    19    1
    27    17    16    1
    28     8    10    1
    29     8    31    1
    30    10    11    1
    31    10    12    1
    32    33    31    1
    33    46    16    1
    34    46    47    1
    35    31    34    1
    36    31    32    1
    37    16    45    1
    38    16    15    1
    39    14    12    1
    40    12    15    1
    41    12    13    1
    42    45    22    1
    43    15    21    2
    44    22    21    1
    45    22    44    2
    46    21    23    1
    47    24    23    1
    48    23    25    1
    49    23    26    1
