@<TRIPOS>MOLECULE
1519842.cif
 52 55 0 0 0
SMALL
GASTEIGER

@<TRIPOS>ATOM
      1 C           8.0820   10.5059    8.4698 C.ar    1  LIG1        0.1591
      2 C           8.6858   11.2389    9.5042 C.ar    1  LIG1       -0.0143
      3 H           8.9398   10.8006   10.3080 H       1  LIG1        0.0658
      4 C           8.9118   12.5948    9.3571 C.ar    1  LIG1       -0.0579
      5 H           9.2983   13.0923   10.0678 H       1  LIG1        0.0619
      6 C           8.5703   13.2321    8.1654 C.ar    1  LIG1       -0.0615
      7 H           8.7523   14.1580    8.0547 H       1  LIG1        0.0618
      8 C           7.9692   12.5203    7.1435 C.ar    1  LIG1       -0.0579
      9 H           7.7063   12.9646    6.3465 H       1  LIG1        0.0619
     10 C           7.7482   11.1544    7.2824 C.ar    1  LIG1       -0.0143
     11 H           7.3685   10.6611    6.5644 H       1  LIG1        0.0658
     12 C          10.4120    8.5141    7.8869 C.3     1  LIG1        0.0378
     13 H          11.2723    8.5104    8.3775 H       1  LIG1        0.0463
     14 H          10.2465    9.4369    7.5698 H       1  LIG1        0.0463
     15 C          10.5174    7.5846    6.6862 C.3     1  LIG1       -0.0367
     16 H           9.6988    7.6643    6.1343 H       1  LIG1        0.0279
     17 H          11.2909    7.8515    6.1287 H       1  LIG1        0.0279
     18 C          10.6870    6.1514    7.1297 C.3     1  LIG1       -0.0505
     19 H          11.5573    6.0464    7.5888 H       1  LIG1        0.0266
     20 H          10.6828    5.5561    6.3387 H       1  LIG1        0.0266
     21 C           9.5528    5.7549    8.0793 C.3     1  LIG1       -0.0367
     22 H           8.6923    5.7586    7.5877 H       1  LIG1        0.0279
     23 H           9.7092    4.8369    8.4166 H       1  LIG1        0.0279
     24 C           9.4743    6.7239    9.2523 C.3     1  LIG1        0.0378
     25 H           8.7045    6.4800    9.8254 H       1  LIG1        0.0463
     26 H          10.2968    6.6433    9.7963 H       1  LIG1        0.0463
     27 C           3.3904    7.8418   11.6016 C.3     1  LIG1        0.0387
     28 H           3.0635    7.4028   10.7772 H       1  LIG1        0.0463
     29 H           2.7860    8.5996   11.8038 H       1  LIG1        0.0463
     30 C           3.3490    6.8446   12.7534 C.3     1  LIG1       -0.0367
     31 H           3.8414    6.0249   12.4965 H       1  LIG1        0.0279
     32 H           2.4100    6.5923   12.9366 H       1  LIG1        0.0279
     33 C           3.9733    7.4384   14.0180 C.3     1  LIG1       -0.0505
     34 H           4.0111    6.7444   14.7230 H       1  LIG1        0.0266
     35 H           3.4070    8.1800   14.3476 H       1  LIG1        0.0266
     36 C           5.3842    7.9583   13.7388 C.3     1  LIG1       -0.0367
     37 H           5.7347    8.4105   14.5465 H       1  LIG1        0.0279
     38 H           5.9819    7.1975   13.5298 H       1  LIG1        0.0279
     39 C           5.3802    8.9369   12.5716 C.3     1  LIG1        0.0387
     40 H           4.8872    9.7542   12.8327 H       1  LIG1        0.0463
     41 H           6.3121    9.1971   12.3613 H       1  LIG1        0.0463
     42 N           7.0492    8.4745   10.0743 N.3     1  LIG1        0.1812
     43 N           4.7318    7.7493    8.8187 N.3     1  LIG1        0.1937
     44 N           6.9982    8.2134    7.3757 N.3     1  LIG1        0.1803
     45 N           9.3239    8.1117    8.8080 N.3     1  LIG1       -0.1335
     46 N           4.7557    8.3553   11.3714 N.3     1  LIG1       -0.1237
     47 P           7.8063    8.7531    8.6812 P.3     1  LIG1        0.3968
     48 P           5.6411    7.7747   10.1378 P.3     1  LIG1        0.4596
     49 P           5.4741    7.8586    7.4313 P.3     1  LIG1        0.4811
     50 CL          5.9929    5.7622   10.5541 Cl      1  LIG1        0.1642
     51 CL          5.1690    6.1615    6.3823 Cl      1  LIG1        0.1626
     52 CL          4.4286    9.1615    6.2930 Cl      1  LIG1        0.1626
@<TRIPOS>BOND
     1    17    15    1
     2    16    15    1
     3    52    49    1
     4    20    18    1
     5     9     8    1
     6    51    49    1
     7    11    10    1
     8    15    18    1
     9    15    12    1
    10    18    19    1
    11    18    21    1
    12     8    10   ar
    13     8     6   ar
    14    10     1   ar
    15    44    49    1
    16    44    47    1
    17    49    43    1
    18    14    12    1
    19    22    21    1
    20    12    13    1
    21    12    45    1
    22     7     6    1
    23    21    23    1
    24    21    24    1
    25     6     4   ar
    26     1    47    1
    27     1     2   ar
    28    47    45    1
    29    47    42    1
    30    45    24    1
    31    43    48    1
    32    24    26    1
    33    24    25    1
    34     4     2   ar
    35     4     5    1
    36     2     3    1
    37    42    48    1
    38    48    50    1
    39    48    46    1
    40    28    27    1
    41    46    27    1
    42    46    39    1
    43    27    29    1
    44    27    30    1
    45    41    39    1
    46    31    30    1
    47    39    40    1
    48    39    36    1
    49    30    32    1
    50    30    33    1
    51    38    36    1
    52    36    33    1
    53    36    37    1
    54    33    35    1
    55    33    34    1
