@<TRIPOS>MOLECULE
1519871.cif
 30 31 0 0 0
SMALL
GASTEIGER

@<TRIPOS>ATOM
      1 C           3.4441   18.9331    3.5697 C.3     1  LIG1        0.1668
      2 H           2.6535   18.3504    3.6949 H       1  LIG1        0.0668
      3 H           3.2582   19.8050    4.0028 H       1  LIG1        0.0668
      4 C           4.6635   18.2902    4.2105 C.3     1  LIG1        0.3435
      5 C           5.0550   16.8280    3.8400 C.3     1  LIG1        0.3801
      6 C           4.1453   15.7317    4.4673 C.3     1  LIG1        0.3801
      7 C           4.1200   14.3387    3.7398 C.3     1  LIG1        0.3435
      8 C           3.0821   14.1254    2.6512 C.3     1  LIG1        0.1668
      9 H           2.9420   13.1536    2.5155 H       1  LIG1        0.0668
     10 H           2.2211   14.5240    2.9351 H       1  LIG1        0.0668
     11 N           2.3018   17.0272    1.5187 N.3     1  LIG1        0.2203
     12 N           3.3737   15.9854   -0.7473 N.3     1  LIG1        0.2067
     13 N           3.4452   18.6677   -0.3236 N.3     1  LIG1        0.2067
     14 O           3.6880   19.1301    2.1606 O.3     1  LIG1       -0.1666
     15 O           3.4981   14.7219    1.4227 O.3     1  LIG1       -0.1666
     16 F           5.7603   19.0256    3.8995 F       1  LIG1       -0.1962
     17 F           4.5002   18.3589    5.5518 F       1  LIG1       -0.1962
     18 F           5.0794   16.6923    2.4915 F       1  LIG1       -0.1922
     19 F           6.3045   16.5936    4.2920 F       1  LIG1       -0.1922
     20 F           2.8759   16.1930    4.5289 F       1  LIG1       -0.1922
     21 F           4.5536   15.5493    5.7397 F       1  LIG1       -0.1922
     22 F           5.3636   14.0548    3.3014 F       1  LIG1       -0.1962
     23 F           3.8293   13.4394    4.7157 F       1  LIG1       -0.1962
     24 P           2.7338   18.4869    1.0806 P.3     1  LIG1        0.5208
     25 P           2.6276   15.7688    0.6375 P.3     1  LIG1        0.5208
     26 P           3.7424   17.4302   -1.2536 P.3     1  LIG1        0.4851
     27 CL          1.1272   19.6620    1.1291 Cl      1  LIG1        0.1763
     28 CL          0.9148   14.8074    0.3313 Cl      1  LIG1        0.1763
     29 CL          2.8580   17.7171   -3.0221 Cl      1  LIG1        0.1627
     30 CL          5.6620   17.4823   -1.7744 Cl      1  LIG1        0.1627
@<TRIPOS>BOND
     1    29    26    1
     2    30    26    1
     3    26    12    1
     4    26    13    1
     5    12    25    1
     6    13    24    1
     7    28    25    1
     8    25    15    1
     9    25    11    1
    10    24    27    1
    11    24    11    1
    12    24    14    1
    13    15     8    1
    14    14     1    1
    15    18     5    1
    16     9     8    1
    17     8    10    1
    18     8     7    1
    19    22     7    1
    20     1     2    1
    21     1     3    1
    22     1     4    1
    23     7     6    1
    24     7    23    1
    25     5     4    1
    26     5    19    1
    27     5     6    1
    28    16     4    1
    29     4    17    1
    30     6    20    1
    31     6    21    1
