@<TRIPOS>MOLECULE
1519858.cif
 52 56 0 0 0
SMALL
GASTEIGER

@<TRIPOS>ATOM
      1 P           9.8778    1.6696    1.6094 P.3     1  LIG1        0.4957
      2 P           9.0376    2.9590   -0.7106 P.3     1  LIG1        0.4957
      3 P           7.6763    3.3635    1.6622 P.3     1  LIG1        0.3596
      4 O          11.2881    2.0751    2.2506 O.3     1  LIG1       -0.1722
      5 O           8.1036    2.0809   -1.6652 O.3     1  LIG1       -0.1722
      6 N          10.0051    1.9336    0.0427 N.3     1  LIG1        0.2220
      7 N           8.1543    3.9112    0.2160 N.3     1  LIG1        0.1810
      8 N           8.7450    2.4433    2.4266 N.3     1  LIG1        0.1810
      9 N           9.7442    0.0488    1.8649 N.3     1  LIG1       -0.1262
     10 H           9.4928   -0.5068    1.2306 H       1  LIG1        0.1726
     11 N           9.9011    3.8271   -1.8192 N.3     1  LIG1       -0.1262
     12 H          10.7768    3.8883   -1.7706 H       1  LIG1        0.1726
     13 C          10.0777   -0.4150    3.2360 C.3     1  LIG1        0.0389
     14 H          10.0965   -1.4048    3.2497 H       1  LIG1        0.0461
     15 H           9.3709   -0.1167    3.8621 H       1  LIG1        0.0461
     16 C          11.4365    0.1243    3.7154 C.3     1  LIG1       -0.0091
     17 H          11.5848   -0.1492    4.6545 H       1  LIG1        0.0302
     18 H          12.1578   -0.2735    3.1637 H       1  LIG1        0.0302
     19 C          11.5061    1.6324    3.6156 C.3     1  LIG1        0.0992
     20 H          10.8191    2.0321    4.2045 H       1  LIG1        0.0606
     21 H          12.3941    1.9422    3.9247 H       1  LIG1        0.0606
     22 C           9.1383    4.5032   -2.9015 C.3     1  LIG1        0.0389
     23 H           9.7679    4.9278   -3.5374 H       1  LIG1        0.0461
     24 H           8.5663    5.2127   -2.5141 H       1  LIG1        0.0461
     25 C           8.2677    3.4924   -3.6410 C.3     1  LIG1       -0.0091
     26 H           7.7342    3.9600   -4.3297 H       1  LIG1        0.0302
     27 H           8.8473    2.8316   -4.0969 H       1  LIG1        0.0302
     28 C           7.3355    2.7704   -2.6863 C.3     1  LIG1        0.0992
     29 H           6.7257    3.4226   -2.2598 H       1  LIG1        0.0606
     30 H           6.7870    2.1163   -3.1891 H       1  LIG1        0.0606
     31 C           7.2683    4.8130    2.6606 C.ar    1  LIG1        0.1468
     32 C           7.6023    6.0954    2.2461 C.ar    1  LIG1       -0.0155
     33 H           8.0814    6.2207    1.4341 H       1  LIG1        0.0658
     34 C           7.2408    7.1932    3.0091 C.ar    1  LIG1       -0.0579
     35 H           7.4676    8.0682    2.7176 H       1  LIG1        0.0619
     36 C           6.5482    7.0192    4.2026 C.ar    1  LIG1       -0.0615
     37 H           6.2992    7.7765    4.7191 H       1  LIG1        0.0618
     38 C           6.2191    5.7444    4.6389 C.ar    1  LIG1       -0.0579
     39 H           5.7526    5.6278    5.4586 H       1  LIG1        0.0619
     40 C           6.5722    4.6342    3.8719 C.ar    1  LIG1       -0.0155
     41 H           6.3443    3.7601    4.1654 H       1  LIG1        0.0658
     42 C           6.1141    2.4596    1.5384 C.ar    1  LIG1        0.1468
     43 C           4.9156    3.1099    1.2228 C.ar    1  LIG1       -0.0155
     44 H           4.9050    4.0528    1.1074 H       1  LIG1        0.0658
     45 C           3.7362    2.3773    1.0800 C.ar    1  LIG1       -0.0579
     46 H           2.9213    2.8268    0.8883 H       1  LIG1        0.0619
     47 C           3.7465    1.0060    1.2150 C.ar    1  LIG1       -0.0615
     48 H           2.9429    0.5126    1.1035 H       1  LIG1        0.0618
     49 C           4.9346    0.3404    1.5182 C.ar    1  LIG1       -0.0579
     50 H           4.9457   -0.6053    1.6082 H       1  LIG1        0.0619
     51 C           6.1114    1.0844    1.6865 C.ar    1  LIG1       -0.0155
     52 H           6.9205    0.6359    1.9056 H       1  LIG1        0.0658
@<TRIPOS>BOND
     1    26    25    1
     2    27    25    1
     3    25    22    1
     4    25    28    1
     5    23    22    1
     6    30    28    1
     7    22    24    1
     8    22    11    1
     9    28    29    1
    10    28     5    1
    11    11    12    1
    12    11     2    1
    13     5     2    1
    14     2     6    1
    15     2     7    1
    16     6     1    1
    17     7     3    1
    18    46    45    1
    19    45    47   ar
    20    45    43   ar
    21    48    47    1
    22    44    43    1
    23    47    49   ar
    24    43    42   ar
    25    10     9    1
    26    33    32    1
    27    49    50    1
    28    49    51   ar
    29    42     3    1
    30    42    51   ar
    31     1     9    1
    32     1     4    1
    33     1     8    1
    34     3     8    1
    35     3    31    1
    36    51    52    1
    37     9    13    1
    38    32    31   ar
    39    32    34   ar
    40     4    19    1
    41    31    40   ar
    42    35    34    1
    43    34    36   ar
    44    18    16    1
    45    13    14    1
    46    13    16    1
    47    13    15    1
    48    19    16    1
    49    19    21    1
    50    19    20    1
    51    16    17    1
    52    40    41    1
    53    40    38   ar
    54    36    38   ar
    55    36    37    1
    56    38    39    1
