@<TRIPOS>MOLECULE
3-Aminopyridinium trifluoroacetate
 21 20 0 0 0
SMALL
GASTEIGER

@<TRIPOS>ATOM
      1 C           9.6400    3.5304    8.4654 C.2     1  LIG1        0.0106
      2 H           8.9509    4.0081    8.0185 H       1  LIG1        0.0797
      3 C          10.8617    4.1617    8.7457 C.2     1  LIG1        0.0231
      4 C          11.8377    3.3979    9.4143 C.3     1  LIG1        0.0289
      5 H          12.6783    3.7877    9.6242 H       1  LIG1        0.0414
      6 C          11.5838    2.0898    9.7667 C.2     1  LIG1       -0.0607
      7 H          12.2458    1.5831   10.2212 H       1  LIG1        0.0591
      8 C          10.3632    1.5151    9.4569 C.2     1  LIG1       -0.0100
      9 H          10.1819    0.6116    9.6884 H       1  LIG1        0.0778
     10 C           6.2570    0.3267    8.4723 C.2     2  LIG2        0.4585
     11 C           6.7608   -0.6569    9.5511 C.3     2  LIG2        0.4954
     12 N           9.4436    2.2543    8.8261 N.pl3   1  LIG1       -0.3254
     13 N          11.0677    5.4572    8.4066 N.pl3   1  LIG1       -0.3598
     14 O           6.9594    1.3232    8.2323 O.co2   2  LIG2       -0.2362
     15 O           5.1567    0.0057    7.9935 O.co2   2  LIG2       -0.2362
     16 F           8.0572   -0.5423    9.8258 F       2  LIG2       -0.1605
     17 F           6.5621   -1.9352    9.2158 F       2  LIG2       -0.1605
     18 F           6.0939   -0.4606   10.6945 F       2  LIG2       -0.1605
     19 H          11.9033    5.7683    8.4184 H       1  LIG1        0.1421
     20 H          10.4874    5.8746    7.8345 H       1  LIG1        0.1421
     21 H           8.6348    1.9133    8.6505 H       1  LIG1        0.1511
@<TRIPOS>BOND
     1    20    13    1
     2    15    10   ar
     3     2     1    1
     4    14    10   ar
     5    13    19    1
     6    13     3    1
     7     1     3    2
     8     1    12    1
     9    10    11    1
    10    21    12    1
    11     3     4    1
    12    12     8    1
    13    17    11    1
    14     4     5    1
    15     4     6    1
    16     8     9    1
    17     8     6    2
    18    11    16    1
    19    11    18    1
    20     6     7    1
