@<TRIPOS>MOLECULE
1519857.cif
 33 33 0 0 0
SMALL
GASTEIGER

@<TRIPOS>ATOM
      1 C          14.6141   -0.4824    4.2841 C.1     1  LIG1        0.1219
      2 C          15.0166   -0.1491    2.9530 C.2     1  LIG1        0.2035
      3 C          16.0751   -0.7169    2.3414 C.2     1  LIG1        0.1209
      4 H          16.3073   -0.4509    1.4593 H       1  LIG1        0.1051
      5 C          18.0201   -2.0017    2.3204 C.3     1  LIG1        0.1851
      6 H          17.8755   -2.0819    1.3438 H       1  LIG1        0.0815
      7 H          18.3280   -2.8791    2.6591 H       1  LIG1        0.0815
      8 C          19.0711   -0.9555    2.5920 C.2     1  LIG1        0.3451
      9 C          21.3786   -0.4529    2.2481 C.3     1  LIG1        0.0898
     10 H          21.8027   -0.5466    3.1378 H       1  LIG1        0.0694
     11 H          21.0777    0.4845    2.1404 H       1  LIG1        0.0694
     12 C          22.3559   -0.8147    1.1641 C.3     1  LIG1       -0.0306
     13 H          22.6286   -1.7501    1.2685 H       1  LIG1        0.0262
     14 H          23.1442   -0.2355    1.2283 H       1  LIG1        0.0262
     15 H          21.9320   -0.6941    0.2895 H       1  LIG1        0.0262
     16 C          12.5571    0.0616    1.7520 C.ar    1  LIG1        0.0944
     17 C          11.4519    0.1993    2.5828 C.ar    1  LIG1       -0.0364
     18 H          11.4472    0.8499    3.2750 H       1  LIG1        0.0637
     19 C          10.3573   -0.6263    2.3869 C.ar    1  LIG1       -0.0599
     20 H           9.5960   -0.5471    2.9487 H       1  LIG1        0.0618
     21 C          10.3726   -1.5695    1.3692 C.ar    1  LIG1       -0.0616
     22 H           9.6279   -2.1461    1.2501 H       1  LIG1        0.0618
     23 C          11.4697   -1.6756    0.5238 C.ar    1  LIG1       -0.0599
     24 H          11.4619   -2.3076   -0.1858 H       1  LIG1        0.0618
     25 C          12.5751   -0.8629    0.7131 C.ar    1  LIG1       -0.0364
     26 H          13.3315   -0.9359    0.1439 H       1  LIG1        0.0637
     27 N          14.2838   -0.7324    5.3493 N.1     1  LIG1       -0.1894
     28 O          16.7939   -1.6435    2.9599 O.2     1  LIG1       -0.4857
     29 O          18.8482    0.1113    3.1143 O.2     1  LIG1       -0.2470
     30 O          20.2391   -1.3676    2.1307 O.3     1  LIG1       -0.4626
     31 O          13.6818    2.0674    2.9729 O.2     1  LIG1       -0.1636
     32 O          14.6877    1.2754    0.8356 O.2     1  LIG1       -0.1636
     33 S          14.0106    0.9941    2.0793 S.O2    1  LIG1        0.0377
@<TRIPOS>BOND
     1    24    23    1
     2    26    25    1
     3    15    12    1
     4    23    25   ar
     5    23    21   ar
     6    25    16   ar
     7    32    33    2
     8    12    14    1
     9    12    13    1
    10    12     9    1
    11    22    21    1
    12     6     5    1
    13    21    19   ar
    14     4     3    1
    15    16    33    1
    16    16    17   ar
    17    33     2    1
    18    33    31    2
    19    30     9    1
    20    30     8    1
    21    11     9    1
    22     9    10    1
    23     5     8    1
    24     5     7    1
    25     5    28    1
    26     3     2    2
    27     3    28    1
    28    19    17   ar
    29    19    20    1
    30    17    18    1
    31     8    29    2
    32     2     1    1
    33     1    27    3
