@<TRIPOS>MOLECULE
1519531.cif
 48 48 0 0 0
SMALL
GASTEIGER

@<TRIPOS>ATOM
      1 C          -2.5444    2.6689   14.6837 C.ar    1  LIG1        0.1481
      2 C          -2.1064    3.9106   14.2155 C.ar    1  LIG1        0.0177
      3 C          -1.7378    3.9668   12.8664 C.ar    1  LIG1       -0.0526
      4 H          -1.4293    4.7923   12.5096 H       1  LIG1        0.0622
      5 C          -1.8063    2.8656   12.0339 C.ar    1  LIG1       -0.0611
      6 H          -1.5482    2.9421   11.1232 H       1  LIG1        0.0618
      7 C          -2.2506    1.6520   12.5254 C.ar    1  LIG1       -0.0557
      8 H          -2.3024    0.8934   11.9561 H       1  LIG1        0.0620
      9 C          -2.6205    1.5559   13.8608 C.ar    1  LIG1        0.0039
     10 H          -2.9259    0.7265   14.2102 H       1  LIG1        0.0681
     11 C          -1.9973    5.1617   15.0563 C.3     1  LIG1       -0.0215
     12 H          -2.9039    5.4095   15.3680 H       1  LIG1        0.0315
     13 H          -1.6691    5.8972   14.4816 H       1  LIG1        0.0315
     14 C          -1.0816    5.0537   16.2716 C.3     1  LIG1       -0.0430
     15 H          -0.2310    4.6283   15.9950 H       1  LIG1        0.0271
     16 H          -0.8715    5.9648   16.5966 H       1  LIG1        0.0271
     17 C          -1.6875    4.2485   17.4149 C.3     1  LIG1        0.0040
     18 H          -1.1032    4.3477   18.2076 H       1  LIG1        0.0327
     19 H          -2.5650    4.6455   17.6434 H       1  LIG1        0.0327
     20 C          -1.8901    2.7637   17.1554 C.3     1  LIG1        0.0985
     21 H          -2.2200    2.3681   18.0124 H       1  LIG1        0.1002
     22 C          -0.6106    2.0221   16.8027 C.3     1  LIG1       -0.0079
     23 H          -0.2375    2.3897   15.9749 H       1  LIG1        0.0292
     24 H          -0.8085    1.0704   16.6768 H       1  LIG1        0.0292
     25 H           0.0392    2.1278   17.5284 H       1  LIG1        0.0292
     26 C          -4.3137    3.0225   16.4553 C.3     1  LIG1        0.1167
     27 H          -4.5628    2.7134   17.3626 H       1  LIG1        0.1022
     28 H          -4.2509    4.0096   16.4789 H       1  LIG1        0.1022
     29 C          -5.3946    2.6223   15.4865 C.ar    1  LIG1        0.0113
     30 C          -5.8214    1.2997   15.3741 C.ar    1  LIG1       -0.0528
     31 H          -5.4308    0.6287   15.9214 H       1  LIG1        0.0622
     32 C          -6.8118    0.9606   14.4686 C.ar    1  LIG1       -0.0613
     33 H          -7.0797    0.0532   14.3813 H       1  LIG1        0.0618
     34 C          -7.4160    1.9332   13.6880 C.ar    1  LIG1       -0.0617
     35 H          -8.0964    1.6948   13.0698 H       1  LIG1        0.0618
     36 C          -7.0225    3.2547   13.8148 C.ar    1  LIG1       -0.0613
     37 H          -7.4462    3.9276   13.2957 H       1  LIG1        0.0618
     38 C          -6.0072    3.5974   14.7032 C.ar    1  LIG1       -0.0528
     39 H          -5.7296    4.5031   14.7757 H       1  LIG1        0.0622
     40 N          -2.9509    2.4465   16.0918 N.pl3   1  LIG1       -0.3819
     41 H          -3.0680    1.5264   16.1527 H       1  LIG1        0.3748
     42 CL         -3.1340   -0.5651   16.7943 Cl      2  LIG2        0.0000
     43 C          -4.1389    0.1056   20.4393 C.3     2  LIG2        0.0330
     44 H          -3.4279   -0.5510   20.2812 H       2  LIG2        0.0521
     45 H          -4.9704   -0.3611   20.6649 H       2  LIG2        0.0521
     46 H          -3.8826    0.6934   21.1809 H       2  LIG2        0.0521
     47 O          -4.3344    0.8772   19.2730 O.3     2  LIG2       -0.3982
     48 H          -4.0689    0.4446   18.6033 H       2  LIG2        0.2090
@<TRIPOS>BOND
     1     6     5    1
     2     8     7    1
     3     5     7   ar
     4     5     3   ar
     5     4     3    1
     6     7     9   ar
     7     3     2   ar
     8    35    34    1
     9    37    36    1
    10    34    36   ar
    11    34    32   ar
    12    36    38   ar
    13     9    10    1
    14     9     1   ar
    15     2     1   ar
    16     2    11    1
    17    33    32    1
    18    32    30   ar
    19    13    11    1
    20     1    40    1
    21    38    39    1
    22    38    29   ar
    23    11    12    1
    24    11    14    1
    25    30    29   ar
    26    30    31    1
    27    29    26    1
    28    23    22    1
    29    15    14    1
    30    40    41    1
    31    40    26    1
    32    40    20    1
    33    14    16    1
    34    14    17    1
    35    26    28    1
    36    26    27    1
    37    24    22    1
    38    22    20    1
    39    22    25    1
    40    20    17    1
    41    20    21    1
    42    17    19    1
    43    17    18    1
    44    48    47    1
    45    47    43    1
    46    44    43    1
    47    43    45    1
    48    43    46    1
