@<TRIPOS>MOLECULE
1519175.cif
 63 67 0 0 0
SMALL
GASTEIGER

@<TRIPOS>ATOM
      1 S           8.7777    5.6325   11.9510 S.2     1  LIG1       -0.0817
      2 O           7.9717    5.3520    5.9742 O.2     1  LIG1       -0.2958
      3 O          10.3830    8.6344   10.0663 O.3     1  LIG1       -0.5049
      4 H           9.9850    8.5567    9.3533 H       1  LIG1        0.2922
      5 O           8.7800    7.4262    8.4129 O.2     1  LIG1       -0.2913
      6 C           6.8218    7.4976    6.0036 C.3     1  LIG1        0.0440
      7 H           7.6246    8.0520    5.9205 H       1  LIG1        0.0426
      8 C           5.4882    9.4400    7.1369 C.ar    1  LIG1       -0.0209
      9 C           5.7726    7.1447    8.1067 C.2     1  LIG1       -0.0221
     10 C           6.3242   10.4811    6.7418 C.ar    1  LIG1       -0.0543
     11 H           7.1916   10.2888    6.4665 H       1  LIG1        0.0624
     12 C           5.1060    7.4004    9.4074 C.ar    1  LIG1       -0.0206
     13 C           5.9597    8.0448    7.1224 C.2     1  LIG1       -0.0253
     14 C           5.7109    8.2481   10.3324 C.ar    1  LIG1       -0.0543
     15 H           6.5283    8.6418   10.1274 H       1  LIG1        0.0624
     16 C           6.4971    5.8294    7.8570 C.3     1  LIG1        0.0620
     17 C           7.2200    6.1261    6.5389 C.2     1  LIG1        0.1515
     18 C           9.8847    6.5413   12.9331 C.ar    1  LIG1        0.0236
     19 C           7.4855    5.5093    8.9879 C.3     1  LIG1        0.0275
     20 H           6.9809    5.3207    9.7941 H       1  LIG1        0.0358
     21 H           7.9720    4.7040    8.7536 H       1  LIG1        0.0358
     22 C           4.1979    9.7683    7.5375 C.ar    1  LIG1       -0.0543
     23 H           3.6173    9.0921    7.8019 H       1  LIG1        0.0624
     24 C           9.0745    6.6898   10.5974 C.ar    1  LIG1        0.0971
     25 C           8.4732    6.5913    9.2875 C.2     1  LIG1        0.1745
     26 C           5.5688    4.6109    7.7021 C.3     1  LIG1       -0.0390
     27 H           6.1143    3.8305    7.5103 H       1  LIG1        0.0275
     28 H           5.1240    4.4544    8.5497 H       1  LIG1        0.0275
     29 C          10.4566    7.6212   12.2631 C.ar    1  LIG1        0.0314
     30 C           9.9783    7.6790   10.9091 C.ar    1  LIG1        0.1421
     31 C           6.1604    7.3647    4.6194 C.3     1  LIG1       -0.0423
     32 H           6.7408    6.8294    4.0556 H       1  LIG1        0.0272
     33 H           5.3294    6.8747    4.7254 H       1  LIG1        0.0272
     34 C          10.2160    6.2821   14.2750 C.ar    1  LIG1       -0.0473
     35 H           9.8445    5.5625   14.7333 H       1  LIG1        0.0629
     36 C           4.6059   12.0900    7.1561 C.ar    1  LIG1       -0.0617
     37 H           4.3113   12.9720    7.1627 H       1  LIG1        0.0618
     38 C           3.7603   11.0814    7.5508 C.ar    1  LIG1       -0.0612
     39 H           2.8945   11.2807    7.8271 H       1  LIG1        0.0618
     40 C          11.3511    8.4726   12.9078 C.ar    1  LIG1       -0.0500
     41 H          11.7282    9.1968   12.4627 H       1  LIG1        0.0625
     42 C           3.8898    6.8312    9.7502 C.ar    1  LIG1       -0.0543
     43 H           3.4710    6.2517    9.1549 H       1  LIG1        0.0624
     44 C           5.8890   11.7949    6.7494 C.ar    1  LIG1       -0.0612
     45 H           6.4620   12.4774    6.4819 H       1  LIG1        0.0618
     46 C           4.5080    4.7362    6.6145 C.3     1  LIG1       -0.0641
     47 H           4.0209    5.5543    6.7351 H       1  LIG1        0.0230
     48 H           3.9031    3.9931    6.6693 H       1  LIG1        0.0230
     49 H           4.9314    4.7406    5.7528 H       1  LIG1        0.0230
     50 C           5.1135    8.5111   11.5494 C.ar    1  LIG1       -0.0612
     51 H           5.5339    9.0751   12.1568 H       1  LIG1        0.0618
     52 C          11.1082    7.1303   14.8846 C.ar    1  LIG1       -0.0607
     53 H          11.3462    6.9715   15.7694 H       1  LIG1        0.0618
     54 C          11.6639    8.2111   14.2268 C.ar    1  LIG1       -0.0610
     55 H          12.2559    8.7687   14.6785 H       1  LIG1        0.0618
     56 C           5.8599    8.6486    3.8999 C.3     1  LIG1       -0.0643
     57 H           5.1739    9.1265    4.3713 H       1  LIG1        0.0230
     58 H           5.5598    8.4539    3.0085 H       1  LIG1        0.0230
     59 H           6.6544    9.1866    3.8593 H       1  LIG1        0.0230
     60 C           3.9140    7.9497   11.8651 C.ar    1  LIG1       -0.0617
     61 H           3.5177    8.1304   12.6863 H       1  LIG1        0.0618
     62 C           3.2875    7.1152   10.9705 C.ar    1  LIG1       -0.0612
     63 H           2.4625    6.7413   11.1810 H       1  LIG1        0.0618
@<TRIPOS>BOND
     1    58    56    1
     2    59    56    1
     3    56    57    1
     4    56    31    1
     5    32    31    1
     6    31    33    1
     7    31     6    1
     8    49    46    1
     9     7     6    1
    10     2    17    2
    11     6    17    1
    12     6    13    1
    13    11    10    1
    14    45    44    1
    15    17    16    1
    16    46    48    1
    17    46    47    1
    18    46    26    1
    19    10    44   ar
    20    10     8   ar
    21    44    36   ar
    22    13     8    1
    23    13     9    2
    24     8    22   ar
    25    36    37    1
    26    36    38   ar
    27    27    26    1
    28    22    38   ar
    29    22    23    1
    30    38    39    1
    31    26    16    1
    32    26    28    1
    33    16     9    1
    34    16    19    1
    35     9    12    1
    36     5    25    2
    37    21    19    1
    38    19    25    1
    39    19    20    1
    40    43    42    1
    41    25    24    1
    42     4     3    1
    43    12    42   ar
    44    12    14   ar
    45    42    62   ar
    46     3    30    1
    47    15    14    1
    48    14    50   ar
    49    24    30   ar
    50    24     1   ar
    51    30    29   ar
    52    62    63    1
    53    62    60   ar
    54    50    60   ar
    55    50    51    1
    56    60    61    1
    57     1    18   ar
    58    29    40   ar
    59    29    18   ar
    60    41    40    1
    61    40    54   ar
    62    18    34   ar
    63    54    55    1
    64    54    52   ar
    65    34    35    1
    66    34    52   ar
    67    52    53    1
