@<TRIPOS>MOLECULE
N-(4-bromophenyl)propanamide
 22 22 0 0 0
SMALL
GASTEIGER

@<TRIPOS>ATOM
      1 C           2.7386    3.1590    7.3065 C.ar    1  LIG1        0.0334
      2 C           1.4758    2.9113    7.8361 C.ar    1  LIG1       -0.0394
      3 H           0.7130    3.3363    7.4635 H       1  LIG1        0.0636
      4 C           1.3322    2.0426    8.9102 C.ar    1  LIG1       -0.0460
      5 H           0.4691    1.8635    9.2662 H       1  LIG1        0.0629
      6 C           2.4449    1.4394    9.4580 C.ar    1  LIG1        0.0180
      7 C           3.7068    1.6733    8.9463 C.ar    1  LIG1       -0.0460
      8 H           4.4667    1.2491    9.3284 H       1  LIG1        0.0629
      9 C           3.8522    2.5354    7.8680 C.ar    1  LIG1       -0.0394
     10 H           4.7163    2.7015    7.5092 H       1  LIG1        0.0636
     11 C           2.0781    4.5251    5.3390 C.2     1  LIG1        0.2169
     12 C           2.6692    5.4903    4.3319 C.3     1  LIG1        0.0215
     13 H           3.2339    6.1501    4.8084 H       1  LIG1        0.0356
     14 H           3.2490    4.9901    3.7048 H       1  LIG1        0.0356
     15 C           1.6052    6.2253    3.5443 C.3     1  LIG1       -0.0570
     16 H           1.0489    5.5775    3.0638 H       1  LIG1        0.0234
     17 H           2.0340    6.8285    2.9020 H       1  LIG1        0.0234
     18 H           1.0461    6.7459    4.1570 H       1  LIG1        0.0234
     19 N           2.9712    4.0583    6.2447 N.am    1  LIG1       -0.2855
     20 O           0.8984    4.1967    5.3222 O.2     1  LIG1       -0.2755
     21 BR          2.2320    0.2952   10.9590 Br      1  LIG1       -0.0503
     22 H           3.7340    4.2319    6.0820 H       1  LIG1        0.1548
@<TRIPOS>BOND
     1    17    15    1
     2    16    15    1
     3    15    18    1
     4    15    12    1
     5    14    12    1
     6    12    13    1
     7    12    11    1
     8    20    11    2
     9    11    19   am
    10    22    19    1
    11    19     1    1
    12     1     2   ar
    13     1     9   ar
    14     3     2    1
    15    10     9    1
    16     2     4   ar
    17     9     7   ar
    18     4     5    1
    19     4     6   ar
    20     7     8    1
    21     7     6   ar
    22     6    21    1
