@<TRIPOS>MOLECULE
1520478.cif
 25 26 0 0 0
SMALL
GASTEIGER

@<TRIPOS>ATOM
      1 C           4.1780    6.4447    2.3130 C.ar    1  LIG1       -0.0228
      2 H           4.2442    5.5374    2.5887 H       1  LIG1        0.0647
      3 C           1.7809    8.6914    0.4451 C.2     1  LIG1        0.0382
      4 H           1.6116    9.6239    0.3647 H       1  LIG1        0.0836
      5 C           3.9672    9.0876    1.5480 C.ar    1  LIG1        0.1698
      6 C           3.0639    6.8924    1.6269 C.ar    1  LIG1       -0.0475
      7 H           2.3669    6.2784    1.4279 H       1  LIG1        0.0626
      8 C          -0.1747    9.5699   -1.4973 C.ar    1  LIG1       -0.0336
      9 H           0.5486   10.1807   -1.4098 H       1  LIG1        0.0640
     10 C          -1.2913    9.9311   -2.2211 C.ar    1  LIG1       -0.0244
     11 H          -1.3494   10.7886   -2.6256 H       1  LIG1        0.0647
     12 C          -1.1440    7.4049   -1.0740 C.ar    1  LIG1       -0.0336
     13 H          -1.0847    6.5357   -0.6955 H       1  LIG1        0.0640
     14 C           5.1928    7.3386    2.5901 C.ar    1  LIG1        0.1613
     15 C          -0.0998    8.3123   -0.8931 C.ar    1  LIG1        0.0640
     16 C           2.9343    8.2238    1.2187 C.ar    1  LIG1        0.0313
     17 C           5.0967    8.6644    2.2160 C.ar    1  LIG1        0.1940
     18 C          -2.3221    9.0233   -2.3463 C.ar    1  LIG1        0.1235
     19 C          -2.2700    7.7623   -1.8035 C.ar    1  LIG1       -0.0244
     20 H          -2.9860    7.1502   -1.9251 H       1  LIG1        0.0647
     21 N           1.0021    7.8548   -0.1213 N.2     1  LIG1       -0.2549
     22 F           3.9096   10.3883    1.1867 F       1  LIG1       -0.2017
     23 F           6.0789    9.5331    2.4862 F       1  LIG1       -0.1994
     24 F           6.3026    6.9364    3.2400 F       1  LIG1       -0.2024
     25 F          -3.4216    9.3800   -3.0590 F       1  LIG1       -0.2055
@<TRIPOS>BOND
     1    25    18    1
     2    11    10    1
     3    18    10   ar
     4    18    19   ar
     5    10     8   ar
     6    20    19    1
     7    19    12   ar
     8     8     9    1
     9     8    15   ar
    10    12    15   ar
    11    12    13    1
    12    15    21    1
    13    21     3    2
    14     4     3    1
    15     3    16    1
    16    22     5    1
    17    16     5   ar
    18    16     6   ar
    19     7     6    1
    20     5    17   ar
    21     6     1   ar
    22    17    23    1
    23    17    14   ar
    24     1     2    1
    25     1    14   ar
    26    14    24    1
