@<TRIPOS>MOLECULE
?
 123 123 0 0 0
SMALL
GASTEIGER

@<TRIPOS>ATOM
      1 C           7.4445   -0.6925    7.3086 C.ar    1  LIG1        0.1169
      2 C           8.3624    0.2317    7.8227 C.ar    1  LIG1       -0.0199
      3 H           9.1152   -0.0706    8.3163 H       1  LIG1        0.0654
      4 C           8.1733    1.5848    7.6126 C.ar    1  LIG1       -0.0551
      5 H           8.7978    2.2001    7.9781 H       1  LIG1        0.0621
      6 C           7.0917    2.0709    6.8799 C.ar    1  LIG1       -0.0449
      7 C           6.1934    1.1427    6.3777 C.ar    1  LIG1       -0.0551
      8 H           5.4520    1.4477    5.8687 H       1  LIG1        0.0621
      9 C           6.3448   -0.2277    6.5946 C.ar    1  LIG1       -0.0199
     10 H           5.6997   -0.8390    6.2582 H       1  LIG1        0.0654
     11 C           6.8641    3.5399    6.6630 C.3     1  LIG1       -0.0006
     12 H           6.5381    3.9355    7.5118 H       1  LIG1        0.0336
     13 H           6.1475    3.6518    5.9900 H       1  LIG1        0.0336
     14 C           8.0917    4.3270    6.2018 C.3     1  LIG1        0.1036
     15 H           8.7522    4.2977    6.9516 H       1  LIG1        0.0598
     16 C           8.7753    3.6851    4.9857 C.2     1  LIG1        0.2368
     17 C           6.8373    4.2151    3.4263 C.3     1  LIG1        0.0156
     18 H           6.6970    5.1341    3.7662 H       1  LIG1        0.0465
     19 H           6.1274    3.6252    3.7832 H       1  LIG1        0.0465
     20 C           6.8618    4.1872    1.9044 C.3     1  LIG1       -0.0350
     21 H           7.2183    5.0369    1.5423 H       1  LIG1        0.0281
     22 H           5.9540    4.0393    1.5389 H       1  LIG1        0.0281
     23 C           7.7830    3.0219    1.5628 C.3     1  LIG1       -0.0243
     24 H           8.2037    3.1550    0.6764 H       1  LIG1        0.0288
     25 H           7.2803    2.1695    1.5526 H       1  LIG1        0.0288
     26 C           8.8444    3.0112    2.6696 C.3     1  LIG1        0.1023
     27 H           9.0230    2.0656    2.9412 H       1  LIG1        0.0597
     28 C          10.1552    3.6611    2.2495 C.2     1  LIG1        0.2342
     29 C          11.5282    5.6788    2.1931 C.3     1  LIG1        0.0999
     30 H          11.8661    5.3325    1.3186 H       1  LIG1        0.0595
     31 C          12.6375    5.5363    3.2247 C.2     1  LIG1        0.2339
     32 C          13.2860    4.9277    5.4759 C.3     1  LIG1        0.0966
     33 H          14.1306    4.5801    5.0694 H       1  LIG1        0.0592
     34 C          12.8341    3.9182    6.5246 C.3     1  LIG1       -0.0381
     35 H          11.9441    4.1645    6.8543 H       1  LIG1        0.0252
     36 H          13.4690    3.9155    7.2710 H       1  LIG1        0.0252
     37 H          12.7988    3.0245    6.1249 H       1  LIG1        0.0252
     38 C          13.6177    6.2635    6.1574 C.2     1  LIG1        0.2331
     39 C          12.7814    8.3597    7.1122 C.3     1  LIG1        0.0116
     40 H          13.7113    8.6887    7.0251 H       1  LIG1        0.0462
     41 H          12.6215    8.1440    8.0652 H       1  LIG1        0.0462
     42 C          11.8262    9.4491    6.6817 C.3     1  LIG1       -0.0373
     43 H          11.9661    9.6329    5.7184 H       1  LIG1        0.0280
     44 H          12.0415   10.2762    7.1805 H       1  LIG1        0.0280
     45 C          10.3260    9.0962    6.9140 C.3     1  LIG1       -0.0495
     46 H          10.2773    8.2239    7.3803 H       1  LIG1        0.0266
     47 H           9.9336    9.7767    7.5170 H       1  LIG1        0.0266
     48 C           9.4763    9.0189    5.6586 C.3     1  LIG1       -0.0259
     49 H          10.0277    8.6793    4.9105 H       1  LIG1        0.0288
     50 H           9.1631    9.9272    5.4195 H       1  LIG1        0.0288
     51 C           8.2740    8.1080    5.8534 C.3     1  LIG1        0.0994
     52 H           7.8913    8.2971    6.7569 H       1  LIG1        0.0594
     53 C           8.6950    6.6324    5.8243 C.2     1  LIG1        0.2340
     54 C           6.1681    9.1188    5.1018 C.2     1  LIG1        0.2308
     55 C           5.0982    9.2201    4.0275 C.3     1  LIG1        0.0882
     56 H           4.2347    8.9364    4.4186 H       1  LIG1        0.0558
     57 H           5.0076   10.1710    3.7679 H       1  LIG1        0.0558
     58 C           6.1852    8.8858    1.8822 C.2     1  LIG1        0.2338
     59 C           6.4430    7.9215    0.7447 C.3     1  LIG1        0.0996
     60 H           6.1367    7.0106    1.0180 H       1  LIG1        0.0594
     61 C           5.6934    8.3317   -0.5209 C.3     1  LIG1       -0.0236
     62 H           4.7383    8.4702   -0.2972 H       1  LIG1        0.0290
     63 H           6.0557    9.1934   -0.8455 H       1  LIG1        0.0290
     64 C           5.7958    7.3076   -1.6209 C.3     1  LIG1       -0.0446
     65 H           6.7533    7.0346   -1.7131 H       1  LIG1        0.0296
     66 C           5.3229    7.8883   -2.9583 C.3     1  LIG1       -0.0626
     67 H           4.3695    8.1080   -2.9002 H       1  LIG1        0.0232
     68 H           5.4631    7.2277   -3.6688 H       1  LIG1        0.0232
     69 H           5.8336    8.6993   -3.1615 H       1  LIG1        0.0232
     70 C           8.7547    7.4741    1.4142 C.2     1  LIG1        0.2137
     71 C           4.9818    6.0943   -1.2947 C.3     1  LIG1       -0.0626
     72 H           5.1033    5.8626   -0.3501 H       1  LIG1        0.0232
     73 H           5.2729    5.3445   -1.8532 H       1  LIG1        0.0232
     74 H           4.0342    6.2794   -1.4655 H       1  LIG1        0.0232
     75 C          11.2310    7.1811    2.0360 C.3     1  LIG1       -0.0177
     76 H          10.9035    7.5300    2.9036 H       1  LIG1        0.0292
     77 H          12.0764    7.6499    1.8259 H       1  LIG1        0.0292
     78 C          10.2095    7.5180    0.9633 C.3     1  LIG1        0.0261
     79 H          10.3241    6.8827    0.2118 H       1  LIG1        0.0359
     80 H          10.4036    8.4250    0.6183 H       1  LIG1        0.0359
     81 N           8.1815    3.7117    3.7805 N.am    1  LIG1       -0.2884
     82 N          10.3192    4.9570    2.5333 N.am    1  LIG1       -0.3025
     83 H           9.6687    5.3871    2.9412 H       1  LIG1        0.1495
     84 N          12.3020    5.0342    4.4186 N.am    1  LIG1       -0.3027
     85 H          11.4771    4.7652    4.5621 H       1  LIG1        0.1495
     86 N           7.8790    7.8723    0.4782 N.am    1  LIG1       -0.3040
     87 H           8.1765    8.1093   -0.3160 H       1  LIG1        0.1494
     88 N           5.3334    8.4436    2.8319 N.am    1  LIG1       -0.3052
     89 H           4.9175    7.6752    2.7226 H       1  LIG1        0.1492
     90 N           7.7328    5.7241    6.0117 N.am    1  LIG1       -0.3022
     91 H           6.8876    5.9691    6.0207 H       1  LIG1        0.1495
     92 N          12.6245    7.1371    6.3060 N.am    1  LIG1       -0.3138
     93 H          11.8534    6.9800    5.9114 H       1  LIG1        0.1487
     94 N           7.2160    8.3211    4.8695 N.am    1  LIG1       -0.3027
     95 H           7.2698    7.9082    4.0941 H       1  LIG1        0.1495
     96 O           7.6746   -2.0057    7.5562 O.3     1  LIG1       -0.5068
     97 H           7.1052   -2.4705    7.1514 H       1  LIG1        0.2921
     98 O           9.8810    3.1444    5.1363 O.2     1  LIG1       -0.2735
     99 O           9.8787    6.2994    5.6590 O.2     1  LIG1       -0.2738
    100 O          11.0135    2.9872    1.6841 O.2     1  LIG1       -0.2738
    101 O          13.7823    5.9238    2.9707 O.2     1  LIG1       -0.2738
    102 O          14.7536    6.4592    6.5878 O.2     1  LIG1       -0.2738
    103 O           6.7193    9.9912    1.9540 O.2     1  LIG1       -0.2738
    104 O           8.3992    7.1065    2.5265 O.2     1  LIG1       -0.2758
    105 O           6.0066    9.7661    6.1453 O.2     1  LIG1       -0.2741
    106 C          11.5069    0.0413    5.8602 C.3     1  LIG1        0.0330
    107 C           8.6819   12.6574    3.3460 C.3     2  LIG2        0.0330
    108 C          11.5095   10.9181    2.2853 C.3     3  LIG3        0.0330
    109 O          11.3159    0.7525    4.6577 O.3     1  LIG1       -0.3982
    110 H          10.9139    1.4716    4.8183 H       1  LIG1        0.2090
    111 O           8.4183   12.1194    2.0906 O.3     2  LIG2       -0.3982
    112 H           7.8150   11.5374    2.1555 H       2  LIG2        0.2090
    113 O          10.3335   11.0513    1.1341 O.3     3  LIG3       -0.3982
    114 H           9.7233   10.4946    1.2913 H       3  LIG3        0.2090
    115 H          12.2761   -0.5127    5.7543 H       1  LIG1        0.0521
    116 H          10.7285   -0.4968    6.0054 H       1  LIG1        0.0521
    117 H          11.6251    0.6632    6.5605 H       1  LIG1        0.0521
    118 H           9.5823   12.7813    3.4724 H       2  LIG2        0.0521
    119 H           8.3109   12.0341    4.0036 H       2  LIG2        0.0521
    120 H           8.1821   13.4831    3.4194 H       2  LIG2        0.0521
    121 H          11.5427   11.7358    2.7567 H       3  LIG3        0.0521
    122 H          12.3337   10.7543    1.8242 H       3  LIG3        0.0521
    123 H          11.2782   10.1936    2.8387 H       3  LIG3        0.0521
@<TRIPOS>BOND
     1    68    66    1
     2    69    66    1
     3    66    67    1
     4    66    64    1
     5    73    71    1
     6    65    64    1
     7    64    71    1
     8    64    61    1
     9    74    71    1
    10    71    72    1
    11    63    61    1
    12    61    62    1
    13    61    59    1
    14    87    86    1
    15    79    78    1
    16    86    59    1
    17    86    70   am
    18    80    78    1
    19    24    23    1
    20    59    60    1
    21    59    58    1
    22    78    70    1
    23    78    75    1
    24   113   114    1
    25   113   108    1
    26    30    29    1
    27    70   104    2
    28    22    20    1
    29    21    20    1
    30    25    23    1
    31    23    20    1
    32    23    26    1
    33   100    28    2
    34   122   108    1
    35    77    75    1
    36    58   103    2
    37    58    88   am
    38    20    17    1
    39    75    29    1
    40    75    76    1
    41   111   112    1
    42   111   107    1
    43    29    82    1
    44    29    31    1
    45    28    82   am
    46    28    26    1
    47   108   121    1
    48   108   123    1
    49    82    83    1
    50    26    27    1
    51    26    81    1
    52    89    88    1
    53    88    55    1
    54   101    31    2
    55    31    84   am
    56   107   120    1
    57   107   118    1
    58   107   119    1
    59    17    18    1
    60    17    81    1
    61    17    19    1
    62    57    55    1
    63    81    16   am
    64    55    56    1
    65    55    54    1
    66    95    94    1
    67    84    85    1
    68    84    32    1
    69   109   110    1
    70   109   106    1
    71    94    54   am
    72    94    51    1
    73    49    48    1
    74    16    98    2
    75    16    14    1
    76    33    32    1
    77    54   105    2
    78    50    48    1
    79    32    38    1
    80    32    34    1
    81    48    51    1
    82    48    45    1
    83    99    53    2
    84    43    42    1
    85   115   106    1
    86    53    51    1
    87    53    90   am
    88    51    52    1
    89   106   116    1
    90   106   117    1
    91     8     7    1
    92    93    92    1
    93    13    11    1
    94    90    91    1
    95    90    14    1
    96    37    34    1
    97    38    92   am
    98    38   102    2
    99    14    11    1
   100    14    15    1
   101    10     9    1
   102    92    39    1
   103     7     9   ar
   104     7     6   ar
   105    34    35    1
   106    34    36    1
   107     9     1   ar
   108    11     6    1
   109    11    12    1
   110    42    45    1
   111    42    39    1
   112    42    44    1
   113     6     4   ar
   114    45    46    1
   115    45    47    1
   116    40    39    1
   117    39    41    1
   118    97    96    1
   119     1    96    1
   120     1     2   ar
   121     4     2   ar
   122     4     5    1
   123     2     3    1
