@<TRIPOS>MOLECULE
?
 44 46 0 0 0
SMALL
GASTEIGER

@<TRIPOS>ATOM
      1 O          -0.0797    5.4937    1.9691 O.3     1  LIG1       -0.3819
      2 H          -0.5861    6.1400    2.1453 H       1  LIG1        0.2105
      3 O          -2.0433    5.9178    3.6537 O.2     1  LIG1       -0.2727
      4 O          -1.2436    1.8207    3.9467 O.3     1  LIG1       -0.3612
      5 N          -1.6975    3.9971    4.8209 N.am    1  LIG1       -0.2761
      6 C           2.0357    4.5963    8.5940 C.ar    1  LIG1       -0.0617
      7 H           2.3578    4.9276    9.4241 H       1  LIG1        0.0618
      8 C           2.3321    3.3063    8.1961 C.ar    1  LIG1       -0.0615
      9 H           2.8586    2.7492    8.7572 H       1  LIG1        0.0618
     10 C           1.8651    2.8186    6.9802 C.ar    1  LIG1       -0.0581
     11 H           2.0727    1.9285    6.7198 H       1  LIG1        0.0620
     12 C           1.0958    3.6207    6.1387 C.ar    1  LIG1       -0.0395
     13 C           0.5889    3.0690    4.8155 C.3     1  LIG1        0.0368
     14 H           1.0560    2.2001    4.6529 H       1  LIG1        0.0397
     15 C           0.9132    4.0113    3.6133 C.3     1  LIG1        0.0294
     16 H           1.3049    4.8483    3.9946 H       1  LIG1        0.0386
     17 C           1.9297    3.4484    2.6430 C.ar    1  LIG1       -0.0406
     18 C           1.7807    2.1699    2.0954 C.ar    1  LIG1       -0.0582
     19 H           1.0529    1.6221    2.3665 H       1  LIG1        0.0620
     20 C           2.6904    1.6949    1.1566 C.ar    1  LIG1       -0.0615
     21 H           2.5788    0.8267    0.7888 H       1  LIG1        0.0618
     22 C           3.7622    2.4843    0.7531 C.ar    1  LIG1       -0.0617
     23 H           4.3823    2.1592    0.1114 H       1  LIG1        0.0618
     24 C           0.8019    4.9209    6.5502 C.ar    1  LIG1       -0.0581
     25 H           0.2798    5.4827    5.9902 H       1  LIG1        0.0620
     26 C           1.2626    5.4051    7.7695 C.ar    1  LIG1       -0.0615
     27 H           1.0492    6.2902    8.0398 H       1  LIG1        0.0618
     28 C           3.9158    3.7479    1.2957 C.ar    1  LIG1       -0.0615
     29 H           4.6470    4.2920    1.0274 H       1  LIG1        0.0618
     30 C           3.0039    4.2232    2.2322 C.ar    1  LIG1       -0.0582
     31 H           3.1189    5.0934    2.5963 H       1  LIG1        0.0620
     32 C          -0.3636    4.4181    2.8467 C.3     1  LIG1        0.1385
     33 H          -0.6879    3.6371    2.3125 H       1  LIG1        0.0697
     34 C          -1.4556    4.8490    3.8101 C.2     1  LIG1        0.2465
     35 C          -0.9158    2.7710    4.9353 C.3     1  LIG1        0.1339
     36 H          -1.0892    2.3671    5.8335 H       1  LIG1        0.0816
     37 C          -2.6168    1.4148    4.0239 C.3     1  LIG1        0.0388
     38 H          -2.8224    1.1295    4.9384 H       1  LIG1        0.0524
     39 H          -2.7727    0.6693    3.4061 H       1  LIG1        0.0524
     40 H          -3.1943    2.1676    3.7787 H       1  LIG1        0.0524
     41 C          -2.7488    4.3123    5.7861 C.3     1  LIG1        0.0056
     42 H          -2.7003    5.2616    6.0233 H       1  LIG1        0.0429
     43 H          -2.6271    3.7669    6.5910 H       1  LIG1        0.0429
     44 H          -3.6242    4.1189    5.3912 H       1  LIG1        0.0429
@<TRIPOS>BOND
     1    23    22    1
     2    22    20   ar
     3    22    28   ar
     4    21    20    1
     5    29    28    1
     6    20    18   ar
     7    28    30   ar
     8     1     2    1
     9     1    32    1
    10    18    19    1
    11    18    17   ar
    12    30    31    1
    13    30    17   ar
    14    33    32    1
    15    17    15    1
    16    32    15    1
    17    32    34    1
    18    39    37    1
    19    15    16    1
    20    15    13    1
    21     3    34    2
    22    40    37    1
    23    34     5   am
    24     4    37    1
    25     4    35    1
    26    37    38    1
    27    14    13    1
    28    13    35    1
    29    13    12    1
    30     5    35    1
    31     5    41    1
    32    35    36    1
    33    44    41    1
    34    41    42    1
    35    41    43    1
    36    25    24    1
    37    12    24   ar
    38    12    10   ar
    39    24    26   ar
    40    11    10    1
    41    10     8   ar
    42    26    27    1
    43    26     6   ar
    44     8     6   ar
    45     8     9    1
    46     6     7    1
