@<TRIPOS>MOLECULE
?
 164 213 0 0 0
SMALL
GASTEIGER

@<TRIPOS>ATOM
      1 O           9.8686   11.1745   18.3575 O.3     1  LIG1       -0.4942
      2 O          13.3607   15.5419   18.3734 O.3     1  LIG1       -0.4942
      3 C           4.5376   19.9097   16.9921 C.ar    1  LIG1       -0.0007
      4 C           3.6288   18.8127   17.0347 C.ar    1  LIG1       -0.0007
      5 C           2.7883   18.8974   15.8875 C.ar    1  LIG1       -0.0013
      6 C           3.1881   20.0217   15.1417 C.ar    1  LIG1       -0.0013
      7 C           4.2686   20.6514   15.8134 C.ar    1  LIG1       -0.0013
      8 C           5.7846   19.8799   17.5797 C.ar    1  LIG1       -0.0089
      9 C           6.7251   20.8226   17.0129 C.ar    1  LIG1       -0.0528
     10 H           7.5564   20.9540   17.4515 H       1  LIG1        0.0624
     11 C           6.4678   21.5365   15.8669 C.ar    1  LIG1       -0.0534
     12 H           7.1254   22.1378   15.5373 H       1  LIG1        0.0624
     13 C           5.2249   21.3949   15.1501 C.ar    1  LIG1       -0.0166
     14 C           4.9445   21.6219   13.7558 C.ar    1  LIG1       -0.0534
     15 H           5.4981   22.2245   13.2715 H       1  LIG1        0.0624
     16 C           3.9089   21.0012   13.0965 C.ar    1  LIG1       -0.0534
     17 H           3.7782   21.1785   12.1728 H       1  LIG1        0.0624
     18 C           3.0195   20.0924   13.7670 C.ar    1  LIG1       -0.0166
     19 C           2.1782   19.0543   13.2092 C.ar    1  LIG1       -0.0534
     20 H           1.8923   19.1272   12.3066 H       1  LIG1        0.0624
     21 C           1.7813   17.9692   13.9462 C.ar    1  LIG1       -0.0534
     22 H           1.2238   17.3158   13.5391 H       1  LIG1        0.0624
     23 C           2.1849   17.7883   15.3244 C.ar    1  LIG1       -0.0166
     24 C           2.3280   16.5734   16.0808 C.ar    1  LIG1       -0.0534
     25 H           1.8395   15.8029   15.8143 H       1  LIG1        0.0624
     26 C           3.1554   16.4976   17.1822 C.ar    1  LIG1       -0.0528
     27 H           3.2205   15.6702   17.6476 H       1  LIG1        0.0624
     28 C           3.9202   17.6169   17.6556 C.ar    1  LIG1       -0.0089
     29 C           5.1470   17.6049   18.4664 C.ar    1  LIG1       -0.0093
     30 C           6.0581   18.7249   18.4381 C.ar    1  LIG1       -0.0093
     31 C           7.2840   18.6333   19.1456 C.ar    1  LIG1       -0.0494
     32 H           7.8940   19.3620   19.1384 H       1  LIG1        0.0627
     33 C           7.5848   17.4926   19.8393 C.ar    1  LIG1       -0.0356
     34 C           6.7038   16.3935   19.8449 C.ar    1  LIG1       -0.0356
     35 C           5.5070   16.4445   19.1814 C.ar    1  LIG1       -0.0494
     36 H           4.9203   15.6983   19.2038 H       1  LIG1        0.0627
     37 C           7.3478   15.3194   20.7002 C.3     1  LIG1        0.0107
     38 H           6.7419   14.6012   21.0463 H       1  LIG1        0.0398
     39 C           8.0261   16.2292   21.7666 C.3     1  LIG1       -0.0313
     40 H           8.6367   15.7314   22.3660 H       1  LIG1        0.0283
     41 H           7.3753   16.7520   22.2975 H       1  LIG1        0.0283
     42 C           8.7823   17.0966   20.7065 C.3     1  LIG1        0.0107
     43 H           9.3515   17.8414   21.0557 H       1  LIG1        0.0398
     44 C           9.4998   15.9651   19.9763 C.ar    1  LIG1       -0.0355
     45 C           8.6091   14.8538   19.9698 C.ar    1  LIG1       -0.0355
     46 C           8.9695   13.6631   19.4254 C.ar    1  LIG1       -0.0464
     47 H           8.3607   12.9352   19.4185 H       1  LIG1        0.0628
     48 C          10.2718   13.5194   18.8655 C.ar    1  LIG1        0.0279
     49 C          11.1642   14.6341   18.8667 C.ar    1  LIG1        0.0279
     50 C          10.7452   15.8710   19.4238 C.ar    1  LIG1       -0.0464
     51 H          11.3240   16.6244   19.4123 H       1  LIG1        0.0628
     52 C          12.4903   14.4752   18.3367 C.ar    1  LIG1        0.1320
     53 C          12.8598   13.2671   17.8240 C.ar    1  LIG1        0.0095
     54 C          11.9675   12.1649   17.8007 C.ar    1  LIG1        0.0095
     55 C          10.7095   12.2701   18.3105 C.ar    1  LIG1        0.1320
     56 C          12.7351   10.9939   17.1935 C.3     1  LIG1        0.0142
     57 H          12.3645   10.0777   17.3488 H       1  LIG1        0.0399
     58 C          14.1402   11.2975   17.7966 C.3     1  LIG1       -0.0310
     59 H          14.1506   11.2513   18.7867 H       1  LIG1        0.0283
     60 H          14.8534   10.7232   17.4172 H       1  LIG1        0.0283
     61 C          14.1921   12.7602   17.2607 C.3     1  LIG1        0.0142
     62 H          15.0096   13.2949   17.4795 H       1  LIG1        0.0399
     63 C          13.9332   12.4637   15.7826 C.ar    1  LIG1       -0.0354
     64 C          13.0287   11.3827   15.7443 C.ar    1  LIG1       -0.0354
     65 C          12.6118   10.8648   14.5454 C.ar    1  LIG1       -0.0494
     66 H          12.0078   10.1313   14.5289 H       1  LIG1        0.0627
     67 C          13.0820   11.4210   13.3356 C.ar    1  LIG1       -0.0093
     68 C          13.9913   12.5400   13.3726 C.ar    1  LIG1       -0.0093
     69 C          14.3978   13.0383   14.6353 C.ar    1  LIG1       -0.0494
     70 H          14.9951   13.7746   14.6845 H       1  LIG1        0.0627
     71 C          13.1296   11.4848   10.9362 C.ar    1  LIG1       -0.0007
     72 C          12.4884   11.4850    9.6769 C.ar    1  LIG1       -0.0013
     73 C          12.9638   12.5885    8.9361 C.ar    1  LIG1       -0.0013
     74 C          13.9056   13.2832    9.7323 C.ar    1  LIG1       -0.0013
     75 C          14.0122   12.5971   10.9714 C.ar    1  LIG1       -0.0007
     76 C          12.5606   10.9166   12.0498 C.ar    1  LIG1       -0.0089
     77 C          11.4028   10.1111   11.7918 C.ar    1  LIG1       -0.0528
     78 H          11.0521    9.5726   12.4902 H       1  LIG1        0.0624
     79 C          10.7760   10.0928   10.5493 C.ar    1  LIG1       -0.0534
     80 H          10.0131    9.5419   10.4205 H       1  LIG1        0.0624
     81 C          11.2582   10.8908    9.4550 C.ar    1  LIG1       -0.0166
     82 C          10.5669   11.4207    8.2959 C.ar    1  LIG1       -0.0534
     83 H           9.7658   10.9962    8.0114 H       1  LIG1        0.0624
     84 C          11.0154   12.5061    7.5965 C.ar    1  LIG1       -0.0534
     85 H          10.5064   12.8153    6.8567 H       1  LIG1        0.0624
     86 C          12.2328   13.2005    7.9402 C.ar    1  LIG1       -0.0166
     87 C          12.6655   14.5392    7.6277 C.ar    1  LIG1       -0.0534
     88 H          12.3012   14.9737    6.8661 H       1  LIG1        0.0624
     89 C          13.5954   15.2102    8.4002 C.ar    1  LIG1       -0.0534
     90 H          13.8522   16.0912    8.1515 H       1  LIG1        0.0624
     91 C          14.1894   14.6137    9.5748 C.ar    1  LIG1       -0.0166
     92 C          14.7856   15.2332   10.7358 C.ar    1  LIG1       -0.0534
     93 H          15.1328   16.1141   10.6632 H       1  LIG1        0.0624
     94 C          14.8640   14.5719   11.9540 C.ar    1  LIG1       -0.0528
     95 H          15.2418   15.0247   12.6988 H       1  LIG1        0.0624
     96 C          14.3909   13.2184   12.1295 C.ar    1  LIG1       -0.0089
     97 C          10.0441   10.4288   19.5810 C.3     1  LIG1        0.0788
     98 H          10.9784   10.1466   19.6613 H       1  LIG1        0.0660
     99 H           9.4646    9.6389   19.5679 H       1  LIG1        0.0660
    100 H           9.8059   10.9936   20.3460 H       1  LIG1        0.0660
    101 C          14.0808   15.6187   19.6271 C.3     1  LIG1        0.0788
    102 H          13.4426   15.6115   20.3709 H       1  LIG1        0.0660
    103 H          14.6043   16.4458   19.6520 H       1  LIG1        0.0660
    104 H          14.6834   14.8487   19.7049 H       1  LIG1        0.0660
    105 C          11.0103   17.3490   14.6898 C.ar    2  LIG2        0.0000
    106 C          10.2805   16.6315   15.7119 C.ar    2  LIG2        0.0000
    107 C          10.5195   15.2033   15.5211 C.ar    2  LIG2        0.0000
    108 C          11.4076   15.0745   14.3496 C.ar    2  LIG2        0.0000
    109 C          11.6919   16.3777   13.8597 C.ar    2  LIG2        0.0000
    110 C           9.0557   17.1020   16.0991 C.ar    2  LIG2        0.0000
    111 C           7.9609   16.1200   16.3375 C.ar    2  LIG2        0.0000
    112 C           8.2052   14.7747   16.1576 C.ar    2  LIG2        0.0000
    113 C           9.4990   14.3007   15.7269 C.ar    2  LIG2        0.0000
    114 C           9.2871   13.1916   14.8078 C.ar    2  LIG2        0.0000
    115 C          10.1445   13.0577   13.7153 C.ar    2  LIG2        0.0000
    116 C          11.2136   14.0111   13.4731 C.ar    2  LIG2        0.0000
    117 C          11.3166   14.2346   12.0517 C.ar    2  LIG2        0.0000
    118 C          11.6086   15.5130   11.5565 C.ar    2  LIG2        0.0000
    119 C          11.8031   16.5940   12.4691 C.ar    2  LIG2        0.0000
    120 C          11.2221   17.7919   11.9104 C.ar    2  LIG2        0.0000
    121 C          10.5481   18.7183   12.6602 C.ar    2  LIG2        0.0000
    122 C           7.1832   17.6125    9.9181 C.ar    2  LIG2        0.0000
    123 C          10.4540   18.4958   14.0841 C.ar    2  LIG2        0.0000
    124 C           9.1321   18.9487   14.5217 C.ar    2  LIG2        0.0000
    125 C           8.4757   18.2654   15.4903 C.ar    2  LIG2        0.0000
    126 C           7.0403   18.0294   15.3556 C.ar    2  LIG2        0.0000
    127 C           6.7491   16.7155   15.8769 C.ar    2  LIG2        0.0000
    128 C           7.2005   13.9613   15.4947 C.ar    2  LIG2        0.0000
    129 C           7.8912   12.9834   14.6655 C.ar    2  LIG2        0.0000
    130 C           7.3544   12.6318   13.4355 C.ar    2  LIG2        0.0000
    131 C           8.2469   12.4663   12.2970 C.ar    2  LIG2        0.0000
    132 C           9.5875   12.6931   12.4171 C.ar    2  LIG2        0.0000
    133 C          10.3199   13.4120   11.3943 C.ar    2  LIG2        0.0000
    134 C           9.6520   13.8919   10.2851 C.ar    2  LIG2        0.0000
    135 C           9.9507   15.1957    9.7721 C.ar    2  LIG2        0.0000
    136 C          10.9198   15.9937   10.3993 C.ar    2  LIG2        0.0000
    137 C          10.6589   17.4018   10.5683 C.ar    2  LIG2        0.0000
    138 C           9.4854   17.9613   10.1509 C.ar    2  LIG2        0.0000
    139 C           8.7868   18.9321   10.9592 C.ar    2  LIG2        0.0000
    140 C           9.3308   19.2931   12.2061 C.ar    2  LIG2        0.0000
    141 C           8.4308   19.4436   13.3378 C.ar    2  LIG2        0.0000
    142 C           7.1024   19.2354   13.2170 C.ar    2  LIG2        0.0000
    143 C           6.3682   18.5129   14.2425 C.ar    2  LIG2        0.0000
    144 C           5.3782   17.7028   13.5911 C.ar    2  LIG2        0.0000
    145 C           5.0844   16.4121   14.0900 C.ar    2  LIG2        0.0000
    146 C           5.7776   15.9307   15.2460 C.ar    2  LIG2        0.0000
    147 C           6.0319   14.5282   15.0655 C.ar    2  LIG2        0.0000
    148 C           5.4694   14.1328   13.7377 C.ar    2  LIG2        0.0000
    149 C           4.9018   15.3276   13.1772 C.ar    2  LIG2        0.0000
    150 C           7.3863   18.7170   10.8350 C.ar    2  LIG2        0.0000
    151 C           6.1898   16.7160   10.1282 C.ar    2  LIG2        0.0000
    152 C           6.5389   18.8583   11.9197 C.ar    2  LIG2        0.0000
    153 C           6.2344   13.4368   11.5568 C.ar    2  LIG2        0.0000
    154 C           6.1292   13.2151   12.9671 C.ar    2  LIG2        0.0000
    155 C           4.9971   15.5426   11.7893 C.ar    2  LIG2        0.0000
    156 C           5.6817   14.5833   10.9673 C.ar    2  LIG2        0.0000
    157 C           8.7388   15.7939    9.3208 C.ar    2  LIG2        0.0000
    158 C           6.4175   15.2941    9.9390 C.ar    2  LIG2        0.0000
    159 C           7.5424   12.9712   11.1127 C.ar    2  LIG2        0.0000
    160 C           8.2041   13.6491   10.1550 C.ar    2  LIG2        0.0000
    161 C           7.6379   14.8250    9.5530 C.ar    2  LIG2        0.0000
    162 C           5.2853   16.8362   11.2919 C.ar    2  LIG2        0.0000
    163 C           5.4705   17.9039   12.1883 C.ar    2  LIG2        0.0000
    164 C           8.4848   17.1349    9.4902 C.ar    2  LIG2        0.0000
@<TRIPOS>BOND
     1    85    84    1
     2    88    87    1
     3    84    86   ar
     4    84    82   ar
     5    87    86   ar
     6    87    89   ar
     7    86    73   ar
     8    83    82    1
     9    90    89    1
    10    82    81   ar
    11    89    91   ar
    12    73    72   ar
    13    73    74   ar
    14   157   164   ar
    15   157   161   ar
    16   157   135   ar
    17    81    72   ar
    18    81    79   ar
    19   164   122   ar
    20   164   138   ar
    21   161   158   ar
    22   161   160   ar
    23    91    74   ar
    24    91    92   ar
    25    72    71   ar
    26    74    75   ar
    27   135   134   ar
    28   135   136   ar
    29   122   151   ar
    30   122   150   ar
    31   158   151   ar
    32   158   156   ar
    33   151   162   ar
    34   138   137   ar
    35   138   139   ar
    36   160   134   ar
    37   160   159   ar
    38   134   133   ar
    39   136   137   ar
    40   136   118   ar
    41    80    79    1
    42    79    77   ar
    43   137   120   ar
    44    93    92    1
    45    92    94   ar
    46   150   139   ar
    47   150   152   ar
    48    71    75   ar
    49    71    76   ar
    50   139   140   ar
    51   156   153   ar
    52   156   155   ar
    53    75    96   ar
    54   159   153   ar
    55   159   131   ar
    56   162   155   ar
    57   162   163   ar
    58   133   117   ar
    59   133   132   ar
    60   118   117   ar
    61   118   119   ar
    62   153   154   ar
    63   155   149   ar
    64    77    76   ar
    65    77    78    1
    66   120   119   ar
    67   120   121   ar
    68   152   163   ar
    69   152   142   ar
    70    94    96   ar
    71    94    95    1
    72    76    67   ar
    73   117   116   ar
    74    96    68   ar
    75    17    16    1
    76   163   144   ar
    77   140   121   ar
    78   140   141   ar
    79   131   132   ar
    80   131   130   ar
    81    20    19    1
    82   132   115   ar
    83   119   109   ar
    84   121   123   ar
    85   154   130   ar
    86   154   148   ar
    87    16    14   ar
    88    16    18   ar
    89   149   148   ar
    90   149   145   ar
    91    19    18   ar
    92    19    21   ar
    93   142   141   ar
    94   142   143   ar
    95    15    14    1
    96    67    68   ar
    97    67    65   ar
    98   141   124   ar
    99    68    69   ar
   100   130   129   ar
   101   116   115   ar
   102   116   108   ar
   103    22    21    1
   104   144   145   ar
   105   144   143   ar
   106   115   114   ar
   107   148   147   ar
   108    14    13   ar
   109    18     6   ar
   110   109   108   ar
   111   109   105   ar
   112    21    23   ar
   113   123   124   ar
   114   123   105   ar
   115   145   146   ar
   116   143   126   ar
   117   108   107   ar
   118   124   125   ar
   119    66    65    1
   120    65    64   ar
   121    69    70    1
   122    69    63   ar
   123   129   114   ar
   124   129   128   ar
   125   105   106   ar
   126   114   113   ar
   127   147   146   ar
   128   147   128   ar
   129     6     7   ar
   130     6     5   ar
   131    13     7   ar
   132    13    11   ar
   133   146   127   ar
   134    23     5   ar
   135    23    24   ar
   136   126   125   ar
   137   126   127   ar
   138   125   110   ar
   139   128   112   ar
   140   107   106   ar
   141   107   113   ar
   142    12    11    1
   143   106   110   ar
   144   113   112   ar
   145    64    63   ar
   146    64    56    1
   147    63    61    1
   148     7     3   ar
   149    25    24    1
   150    11     9   ar
   151   127   111   ar
   152     5     4   ar
   153    24    26   ar
   154   110   111   ar
   155   112   111   ar
   156     3     4   ar
   157     3     8   ar
   158     9    10    1
   159     9     8   ar
   160     4    28   ar
   161    26    27    1
   162    26    28   ar
   163    56    57    1
   164    56    58    1
   165    56    54    1
   166    61    62    1
   167    61    58    1
   168    61    53    1
   169    60    58    1
   170     8    30   ar
   171    28    29   ar
   172    58    59    1
   173    54    53   ar
   174    54    55   ar
   175    53    52   ar
   176    55     1    1
   177    55    48   ar
   178    52     2    1
   179    52    49   ar
   180     1    97    1
   181     2   101    1
   182    30    29   ar
   183    30    31   ar
   184    29    35   ar
   185    48    49   ar
   186    48    46   ar
   187    49    50   ar
   188    32    31    1
   189    31    33   ar
   190    35    36    1
   191    35    34   ar
   192    51    50    1
   193    47    46    1
   194    50    44   ar
   195    46    45   ar
   196    99    97    1
   197    97    98    1
   198    97   100    1
   199   101   103    1
   200   101   104    1
   201   101   102    1
   202    33    34   ar
   203    33    42    1
   204    34    37    1
   205    45    44   ar
   206    45    37    1
   207    44    42    1
   208    37    38    1
   209    37    39    1
   210    42    43    1
   211    42    39    1
   212    39    41    1
   213    39    40    1
