@<TRIPOS>MOLECULE
1-(t-butyl)-3-methyl-9H-indeno[2,1-c]pyridin-9-one
 30 32 0 0 0
SMALL
GASTEIGER

@<TRIPOS>ATOM
      1 O           3.6727    1.7188    0.3030 O.2     1  LIG1       -0.2866
      2 N           0.9510    1.7187    3.9871 N.ar    1  LIG1       -0.2552
      3 C           1.9470    1.7187    3.0731 C.ar    1  LIG1        0.0597
      4 C           1.6356    1.7187    1.7002 C.ar    1  LIG1        0.0518
      5 C           2.4672    1.7188    0.4382 C.2     1  LIG1        0.1960
      6 C           1.4770    1.7188   -0.6878 C.ar    1  LIG1        0.0300
      7 C           1.7061    1.7188   -2.0543 C.ar    1  LIG1       -0.0503
      8 H           2.5904    1.7188   -2.4026 H       1  LIG1        0.0625
      9 C           0.5945    1.7188   -2.9053 C.ar    1  LIG1       -0.0611
     10 H           0.7198    1.7188   -3.8474 H       1  LIG1        0.0618
     11 C          -0.6951    1.7188   -2.3792 C.ar    1  LIG1       -0.0611
     12 H          -1.4378    1.7188   -2.9714 H       1  LIG1        0.0618
     13 C          -0.9198    1.7188   -1.0010 C.ar    1  LIG1       -0.0533
     14 H          -1.8020    1.7188   -0.6496 H       1  LIG1        0.0624
     15 C           0.1834    1.7188   -0.1620 C.ar    1  LIG1       -0.0063
     16 C           0.2846    1.7187    1.3117 C.ar    1  LIG1       -0.0029
     17 C          -0.7184    1.7187    2.2521 C.ar    1  LIG1       -0.0319
     18 H          -1.6349    1.7187    1.9997 H       1  LIG1        0.0642
     19 C          -0.3338    1.7187    3.5938 C.ar    1  LIG1        0.0426
     20 C           3.3741    1.7187    3.6342 C.3     1  LIG1        0.0216
     21 C           3.3718    1.7187    5.1692 C.3     1  LIG1       -0.0404
     22 H           4.3027    1.7187    5.4643 H       1  LIG1        0.0275
     23 H           2.9248    0.9075    5.5324 H       1  LIG1        0.0275
     24 C           4.1093    0.4518    3.1634 C.3     1  LIG1       -0.0532
     25 H           5.0225    0.4524    3.5199 H       1  LIG1        0.0239
     26 H           4.1408    0.4379    2.1836 H       1  LIG1        0.0239
     27 H           3.6322   -0.3410    3.4859 H       1  LIG1        0.0239
     28 C          -1.3591    1.7187    4.6900 C.3     1  LIG1       -0.0050
     29 H          -2.2631    1.7187    4.3428 H       1  LIG1        0.0332
     30 H          -1.2424    2.5162    5.2772 H       1  LIG1        0.0332
@<TRIPOS>BOND
     1    10     9    1
     2    12    11    1
     3     9    11   ar
     4     9     7   ar
     5     8     7    1
     6    11    13   ar
     7     7     6   ar
     8    13    14    1
     9    13    15   ar
    10     6    15   ar
    11     6     5    1
    12    15    16    1
    13     1     5    2
    14     5     4    1
    15    16     4   ar
    16    16    17   ar
    17     4     3   ar
    18    18    17    1
    19    26    24    1
    20    17    19   ar
    21     3    20    1
    22     3     2   ar
    23    24    27    1
    24    24    25    1
    25    24    20    1
    26    19     2   ar
    27    19    28    1
    28    20    21    1
    29    29    28    1
    30    28    30    1
    31    21    22    1
    32    21    23    1
