@<TRIPOS>MOLECULE
THPE
 122 125 0 0 0
SMALL
GASTEIGER

@<TRIPOS>ATOM
      1 O           8.1154    3.9725    1.9214 O.3     1  LIG1       -0.4920
      2 O           9.3686   -2.6704    5.5677 O.3     1  LIG1       -0.4920
      3 O           9.5874    8.7768    9.5377 O.3     1  LIG1       -0.4920
      4 O           9.5393    2.2398   13.8654 O.3     1  LIG1       -0.4920
      5 C           4.6634    2.8246   -4.5996 C.3     1  LIG1       -0.0653
      6 H           5.4488    2.4598   -5.0140 H       1  LIG1        0.0230
      7 H           4.6336    3.7730   -4.7484 H       1  LIG1        0.0230
      8 H           3.8825    2.4163   -4.9795 H       1  LIG1        0.0230
      9 C           4.7029    2.5494   -3.1141 C.3     1  LIG1       -0.0559
     10 H           4.7038    1.5902   -2.9719 H       1  LIG1        0.0263
     11 H           3.8989    2.9074   -2.7062 H       1  LIG1        0.0263
     12 C           5.9194    3.1537   -2.4222 C.3     1  LIG1       -0.0532
     13 H           6.7202    2.7207   -2.7563 H       1  LIG1        0.0265
     14 H           5.9749    4.0959   -2.6459 H       1  LIG1        0.0265
     15 C           5.8718    3.0065   -0.9136 C.3     1  LIG1       -0.0500
     16 H           5.8020    2.0631   -0.6951 H       1  LIG1        0.0266
     17 H           5.0722    3.4441   -0.5830 H       1  LIG1        0.0266
     18 C           7.0873    3.5900   -0.1940 C.3     1  LIG1       -0.0186
     19 H           7.8975    3.1948   -0.5519 H       1  LIG1        0.0298
     20 H           7.1256    4.5465   -0.3484 H       1  LIG1        0.0298
     21 C           7.0064    3.3194    1.2940 C.3     1  LIG1        0.0896
     22 H           6.1725    3.6617    1.6506 H       1  LIG1        0.0696
     23 H           7.0434    2.3648    1.4626 H       1  LIG1        0.0696
     24 C           8.2675    3.8024    3.2692 C.ar    1  LIG1        0.1205
     25 C           9.3277    4.4980    3.8520 C.ar    1  LIG1       -0.0194
     26 H           9.8783    5.0322    3.3272 H       1  LIG1        0.0654
     27 C           9.5589    4.3912    5.2112 C.ar    1  LIG1       -0.0505
     28 H          10.2626    4.8667    5.5901 H       1  LIG1        0.0625
     29 C           8.7594    3.5806    6.0355 C.ar    1  LIG1       -0.0165
     30 C           7.6930    2.9155    5.4352 C.ar    1  LIG1       -0.0505
     31 H           7.1375    2.3863    5.9610 H       1  LIG1        0.0625
     32 C           7.4369    3.0196    4.0726 C.ar    1  LIG1       -0.0194
     33 H           6.7147    2.5694    3.6980 H       1  LIG1        0.0654
     34 C           7.5808   -5.5435   -0.1535 C.3     1  LIG1       -0.0653
     35 H           7.2072   -5.0356   -0.8779 H       1  LIG1        0.0230
     36 H           7.0960   -6.3674   -0.0569 H       1  LIG1        0.0230
     37 H           8.5030   -5.7350   -0.3381 H       1  LIG1        0.0230
     38 C           7.4768   -4.7350    1.1436 C.3     1  LIG1       -0.0559
     39 H           7.8158   -3.8433    0.9711 H       1  LIG1        0.0263
     40 H           6.5377   -4.6498    1.3712 H       1  LIG1        0.0263
     41 C           8.2118   -5.3006    2.3526 C.3     1  LIG1       -0.0532
     42 H           7.8485   -6.1732    2.5682 H       1  LIG1        0.0265
     43 H           9.1500   -5.4140    2.1319 H       1  LIG1        0.0265
     44 C           8.0871   -4.4001    3.5497 C.3     1  LIG1       -0.0500
     45 H           7.1424   -4.2676    3.7239 H       1  LIG1        0.0266
     46 H           8.4591   -3.5367    3.3116 H       1  LIG1        0.0266
     47 C           8.7592   -4.8602    4.8795 C.3     1  LIG1       -0.0186
     48 H           8.3659   -5.6959    5.1744 H       1  LIG1        0.0298
     49 H           9.7070   -5.0045    4.7363 H       1  LIG1        0.0298
     50 C           8.5562   -3.7939    5.9446 C.3     1  LIG1        0.0896
     51 H           7.6227   -3.5354    5.9903 H       1  LIG1        0.0696
     52 H           8.8269   -4.1290    6.8130 H       1  LIG1        0.0696
     53 C           9.2123   -1.4943    6.2449 C.ar    1  LIG1        0.1205
     54 C          10.0278   -0.4469    5.8154 C.ar    1  LIG1       -0.0194
     55 H          10.6182   -0.5796    5.1089 H       1  LIG1        0.0654
     56 C           9.9622    0.7854    6.4361 C.ar    1  LIG1       -0.0505
     57 H          10.5130    1.4732    6.1403 H       1  LIG1        0.0625
     58 C           9.0824    1.0203    7.5019 C.ar    1  LIG1       -0.0165
     59 C           8.2853   -0.0331    7.9171 C.ar    1  LIG1       -0.0505
     60 H           7.7039    0.0980    8.6310 H       1  LIG1        0.0625
     61 C           8.3267   -1.2834    7.2998 C.ar    1  LIG1       -0.0194
     62 H           7.7689   -1.9693    7.5892 H       1  LIG1        0.0654
     63 C           9.0255    3.5199    7.5007 C.2     1  LIG1       -0.0025
     64 C           9.0673    2.3427    8.2023 C.2     1  LIG1       -0.0025
     65 C           9.2197    4.8721    8.1018 C.ar    1  LIG1       -0.0165
     66 C           8.2748    5.8689    7.8298 C.ar    1  LIG1       -0.0505
     67 H           7.5385    5.6659    7.2994 H       1  LIG1        0.0625
     68 C           8.4159    7.1459    8.3327 C.ar    1  LIG1       -0.0194
     69 H           7.7676    7.7878    8.1532 H       1  LIG1        0.0654
     70 C           9.5251    7.4755    9.1077 C.ar    1  LIG1        0.1205
     71 C          10.4894    6.5048    9.3742 C.ar    1  LIG1       -0.0194
     72 H          11.2384    6.7154    9.8832 H       1  LIG1        0.0654
     73 C          10.3209    5.2153    8.8712 C.ar    1  LIG1       -0.0505
     74 H          10.9631    4.5687    9.0570 H       1  LIG1        0.0625
     75 C          10.7568    9.2058   10.2487 C.3     1  LIG1        0.0896
     76 H          11.5529    9.0416    9.7193 H       1  LIG1        0.0696
     77 H          10.8379    8.7250   11.0871 H       1  LIG1        0.0696
     78 C          10.5933   10.6872   10.5069 C.3     1  LIG1       -0.0186
     79 H          10.3692   11.1272    9.6727 H       1  LIG1        0.0298
     80 H          11.4412   11.0474   10.8111 H       1  LIG1        0.0298
     81 C           9.5156   11.0202   11.5442 C.3     1  LIG1       -0.0500
     82 H           9.2322   11.9387   11.4183 H       1  LIG1        0.0266
     83 H           8.7461   10.4500   11.3907 H       1  LIG1        0.0266
     84 C           9.9830   10.8406   12.9813 C.3     1  LIG1       -0.0532
     85 H          10.6626   11.5028   13.1776 H       1  LIG1        0.0265
     86 H          10.3872    9.9637   13.0758 H       1  LIG1        0.0265
     87 C           8.8426   10.9772   13.9969 C.3     1  LIG1       -0.0559
     88 H           8.3852   11.8179   13.8433 H       1  LIG1        0.0263
     89 H           8.2046   10.2625   13.8485 H       1  LIG1        0.0263
     90 C           9.3057   10.9278   15.4491 C.3     1  LIG1       -0.0653
     91 H           9.9945   11.5809   15.5871 H       1  LIG1        0.0230
     92 H           9.6493   10.0537   15.6458 H       1  LIG1        0.0230
     93 H           8.5633   11.1178   16.0270 H       1  LIG1        0.0230
     94 C           9.1531    2.2852    9.6929 C.ar    1  LIG1       -0.0165
     95 C           8.5515    3.2411   10.5288 C.ar    1  LIG1       -0.0505
     96 H           8.0469    3.9236   10.1471 H       1  LIG1        0.0625
     97 C           8.6881    3.1924   11.9007 C.ar    1  LIG1       -0.0194
     98 H           8.2842    3.8442   12.4273 H       1  LIG1        0.0654
     99 C           9.4257    2.1776   12.5014 C.ar    1  LIG1        0.1205
    100 C           9.9694    1.1786   11.7104 C.ar    1  LIG1       -0.0194
    101 H          10.4187    0.4662   12.1030 H       1  LIG1        0.0654
    102 C           9.8407    1.2433   10.3258 C.ar    1  LIG1       -0.0505
    103 H          10.2222    0.5740    9.8056 H       1  LIG1        0.0625
    104 C          10.5001    1.3930   14.5079 C.3     1  LIG1        0.0896
    105 H          11.3066    1.3367   13.9727 H       1  LIG1        0.0696
    106 H          10.1386    0.4998   14.6143 H       1  LIG1        0.0696
    107 C          10.8141    1.9924   15.8586 C.3     1  LIG1       -0.0186
    108 H          11.3488    1.3627   16.3667 H       1  LIG1        0.0298
    109 H           9.9852    2.1365   16.3409 H       1  LIG1        0.0298
    110 C          11.5748    3.3320   15.7579 C.3     1  LIG1       -0.0500
    111 H          11.0613    3.9367   15.1990 H       1  LIG1        0.0266
    112 H          11.6252    3.7240   16.6444 H       1  LIG1        0.0266
    113 C          12.9947    3.2330   15.1887 C.3     1  LIG1       -0.0532
    114 H          13.5117    2.6327   15.7493 H       1  LIG1        0.0265
    115 H          12.9465    2.8400   14.3039 H       1  LIG1        0.0265
    116 C          13.7373    4.5677   15.0904 C.3     1  LIG1       -0.0559
    117 H          13.2108    5.1785   14.5522 H       1  LIG1        0.0263
    118 H          13.8124    4.9493   15.9787 H       1  LIG1        0.0263
    119 C          15.0914    4.4577   14.5022 C.3     1  LIG1       -0.0653
    120 H          15.0357    4.0159   13.6519 H       1  LIG1        0.0230
    121 H          15.6554    3.9499   15.0904 H       1  LIG1        0.0230
    122 H          15.4609    5.3359   14.3832 H       1  LIG1        0.0230
@<TRIPOS>BOND
     1     6     5    1
     2     8     5    1
     3     7     5    1
     4     5     9    1
     5     9    10    1
     6     9    11    1
     7     9    12    1
     8    13    12    1
     9    14    12    1
    10    12    15    1
    11    15    16    1
    12    15    17    1
    13    15    18    1
    14    35    34    1
    15    19    18    1
    16    20    18    1
    17    37    34    1
    18    18    21    1
    19    34    36    1
    20    34    38    1
    21    39    38    1
    22    38    40    1
    23    38    41    1
    24    21    23    1
    25    21    22    1
    26    21     1    1
    27     1    24    1
    28    43    41    1
    29    41    42    1
    30    41    44    1
    31    24    25   ar
    32    24    32   ar
    33    46    44    1
    34    26    25    1
    35    44    45    1
    36    44    47    1
    37    33    32    1
    38    25    27   ar
    39    32    30   ar
    40    49    47    1
    41    47    48    1
    42    47    50    1
    43    55    54    1
    44    27    28    1
    45    27    29   ar
    46    30    31    1
    47    30    29   ar
    48     2    50    1
    49     2    53    1
    50    54    53   ar
    51    54    56   ar
    52    50    51    1
    53    50    52    1
    54    29    63    1
    55    57    56    1
    56    53    61   ar
    57    56    58   ar
    58    67    66    1
    59    61    62    1
    60    61    59   ar
    61    63    65    1
    62    63    64    2
    63    58    59   ar
    64    58    64    1
    65    66    65   ar
    66    66    68   ar
    67    59    60    1
    68    65    73   ar
    69    69    68    1
    70    64    94    1
    71    68    70   ar
    72    73    74    1
    73    73    71   ar
    74    70    71   ar
    75    70     3    1
    76    71    72    1
    77     3    75    1
    78    79    78    1
    79    94   102   ar
    80    94    95   ar
    81    76    75    1
    82   103   102    1
    83    96    95    1
    84    75    78    1
    85    75    77    1
    86   102   100   ar
    87    78    80    1
    88    78    81    1
    89    95    97   ar
    90    83    81    1
    91    82    81    1
    92    81    84    1
    93   100   101    1
    94   100    99   ar
    95    97    98    1
    96    97    99   ar
    97    99     4    1
    98    84    86    1
    99    84    85    1
   100    84    87    1
   101   120   119    1
   102    88    87    1
   103    89    87    1
   104     4   104    1
   105   105   104    1
   106    87    90    1
   107   115   113    1
   108   122   119    1
   109   119   121    1
   110   119   116    1
   111   104   106    1
   112   104   107    1
   113   117   116    1
   114   116   113    1
   115   116   118    1
   116   113   114    1
   117   113   110    1
   118   111   110    1
   119    90    91    1
   120    90    92    1
   121    90    93    1
   122   110   107    1
   123   110   112    1
   124   107   109    1
   125   107   108    1
