@<TRIPOS>MOLECULE
C18 H15 N O3 S
 38 39 0 0 0
SMALL
GASTEIGER

@<TRIPOS>ATOM
      1 S           4.0281    4.2308    5.5865 S.2     1  LIG1       -0.0928
      2 O           2.5183    1.7408    1.0340 O.3     1  LIG1       -0.4613
      3 O           2.8508    1.6992    4.1736 O.2     1  LIG1       -0.2864
      4 O           2.1036    3.8498    0.3778 O.2     1  LIG1       -0.2448
      5 N           1.8840    6.6420    1.6694 N.1     1  LIG1       -0.1908
      6 C           4.9955    1.9374    3.1748 C.ar    1  LIG1        0.0225
      7 C           3.5657    2.2769    3.3834 C.2     1  LIG1        0.2013
      8 C           2.3326    5.7354    2.2041 C.1     1  LIG1        0.1012
      9 C           5.6374    1.1333    4.1269 C.ar    1  LIG1       -0.0509
     10 C           2.9329    4.6909    3.0253 C.2     1  LIG1        0.0831
     11 C           7.6693    1.2564    2.8434 C.ar    1  LIG1       -0.0617
     12 C           2.9899    3.4229    2.5608 C.2     1  LIG1        0.1244
     13 C           3.4117    5.2130    4.3021 C.ar    1  LIG1        0.0307
     14 C           6.9739    0.8176    3.9579 C.ar    1  LIG1       -0.0611
     15 C           2.4822    3.0653    1.2037 C.2     1  LIG1        0.3442
     16 C           2.0821    1.2427   -0.2705 C.3     1  LIG1        0.0900
     17 C           7.0341    2.0461    1.8937 C.ar    1  LIG1       -0.0611
     18 C           3.4611    6.5374    4.6650 C.ar    1  LIG1       -0.0460
     19 C           4.3552    5.5917    6.5806 C.ar    1  LIG1       -0.0127
     20 C           3.1876    1.3500   -1.2805 C.3     1  LIG1       -0.0306
     21 C           3.9898    6.7409    5.9536 C.ar    1  LIG1       -0.0512
     22 C           4.9437    5.4014    7.9468 C.3     1  LIG1       -0.0334
     23 C           5.7029    2.3960    2.0743 C.ar    1  LIG1       -0.0509
     24 H           5.1588    0.8074    4.8804 H       1  LIG1        0.0625
     25 H           8.5812    1.0167    2.7286 H       1  LIG1        0.0618
     26 H           7.4198    0.2950    4.6138 H       1  LIG1        0.0618
     27 H           1.3006    1.7658   -0.5795 H       1  LIG1        0.0695
     28 H           1.8033    0.2960   -0.1859 H       1  LIG1        0.0695
     29 H           7.5078    2.3448    1.1261 H       1  LIG1        0.0618
     30 H           3.1688    7.2452    4.1026 H       1  LIG1        0.0629
     31 H           2.8743    1.0112   -2.1451 H       1  LIG1        0.0262
     32 H           3.4540    2.2883   -1.3745 H       1  LIG1        0.0262
     33 H           3.9561    0.8205   -0.9814 H       1  LIG1        0.0262
     34 H           4.0829    7.6003    6.3478 H       1  LIG1        0.0626
     35 H           5.0961    4.4468    8.1067 H       1  LIG1        0.0283
     36 H           5.7956    5.8826    8.0053 H       1  LIG1        0.0283
     37 H           4.3242    5.7508    8.6208 H       1  LIG1        0.0283
     38 H           5.2727    2.9554    1.4380 H       1  LIG1        0.0625
@<TRIPOS>BOND
     1    31    20    1
     2    32    20    1
     3    20    33    1
     4    20    16    1
     5    27    16    1
     6    16    28    1
     7    16     2    1
     8     4    15    2
     9     2    15    1
    10    29    17    1
    11    15    12    1
    12    38    23    1
    13     5     8    3
    14    17    23   ar
    15    17    11   ar
    16    23     6   ar
    17     8    10    1
    18    12    10    2
    19    12     7    1
    20    25    11    1
    21    11    14   ar
    22    10    13    1
    23     6     7    1
    24     6     9   ar
    25     7     3    2
    26    14     9   ar
    27    14    26    1
    28    30    18    1
    29     9    24    1
    30    13    18   ar
    31    13     1   ar
    32    18    21   ar
    33     1    19   ar
    34    21    34    1
    35    21    19   ar
    36    19    22    1
    37    22    36    1
    38    22    35    1
    39    22    37    1
