@<TRIPOS>MOLECULE
C26 H21 N O4 S
 53 57 0 0 0
SMALL
GASTEIGER

@<TRIPOS>ATOM
      1 S          10.0536    1.6367    7.6154 S.O2    1  LIG1        0.0996
      2 N          11.1353    2.9068    7.4243 N.2     1  LIG1       -0.1325
      3 O          15.2740    7.3169    5.4747 O.3     1  LIG1       -0.4647
      4 O           9.8412    1.4164    9.0101 O.2     1  LIG1       -0.1463
      5 C          11.2883    5.1701    6.5640 C.3     1  LIG1        0.0248
      6 H          10.7361    5.9190    6.8735 H       1  LIG1        0.0383
      7 C          10.5437    3.9035    6.8809 C.2     1  LIG1        0.0769
      8 C          12.6749    5.3106    7.2364 C.3     1  LIG1        0.0248
      9 H          13.0744    4.4203    7.3309 H       1  LIG1        0.0406
     10 C          11.5391    5.3763    5.0204 C.3     1  LIG1        0.0121
     11 H          11.6799    4.4970    4.6116 H       1  LIG1        0.0398
     12 O          10.4897    0.5409    6.8265 O.2     1  LIG1       -0.1463
     13 O          15.4375    6.3434    7.4186 O.2     1  LIG1       -0.2453
     14 C          13.4399    6.0817    6.1818 C.2     1  LIG1        0.0413
     15 C          12.5785    5.9514    8.5992 C.ar    1  LIG1       -0.0391
     16 C           9.0925    3.7389    6.5759 C.ar    1  LIG1        0.0250
     17 C          10.4625    6.0882    4.2500 C.ar    1  LIG1       -0.0399
     18 C          12.8468    6.1095    5.0204 C.2     1  LIG1       -0.0654
     19 H          13.1968    6.5385    4.2732 H       1  LIG1        0.0583
     20 C          14.8008    6.6050    6.4568 C.2     1  LIG1        0.3352
     21 C           9.9375    7.2929    4.6993 C.ar    1  LIG1       -0.0580
     22 H          10.2524    7.6821    5.4825 H       1  LIG1        0.0620
     23 C          12.3089    7.2966    8.7470 C.ar    1  LIG1       -0.0580
     24 H          12.2132    7.8245    7.9872 H       1  LIG1        0.0620
     25 C           8.1802    4.6385    6.0605 C.ar    1  LIG1       -0.0509
     26 H           8.4328    5.5085    5.8491 H       1  LIG1        0.0625
     27 C           8.6814    2.4658    6.8939 C.ar    1  LIG1        0.1213
     28 C           6.8793    4.2086    5.8679 C.ar    1  LIG1       -0.0610
     29 H           6.2517    4.8077    5.5326 H       1  LIG1        0.0618
     30 C          12.7176    5.2080    9.7401 C.ar    1  LIG1       -0.0580
     31 H          12.8903    4.2964    9.6727 H       1  LIG1        0.0620
     32 C           9.9886    5.5640    3.0592 C.ar    1  LIG1       -0.0580
     33 H          10.3291    4.7568    2.7475 H       1  LIG1        0.0620
     34 C          12.1774    7.8791    9.9860 C.ar    1  LIG1       -0.0615
     35 H          11.9877    8.7870   10.0455 H       1  LIG1        0.0618
     36 C           8.9364    7.9068    3.9599 C.ar    1  LIG1       -0.0615
     37 H           8.5649    8.7010    4.2685 H       1  LIG1        0.0618
     38 C          12.6063    5.7859   11.0010 C.ar    1  LIG1       -0.0615
     39 H          12.7204    5.2700   11.7670 H       1  LIG1        0.0618
     40 C           8.4854    7.3678    2.7882 C.ar    1  LIG1       -0.0617
     41 H           7.8138    7.7903    2.3027 H       1  LIG1        0.0618
     42 C          12.3169    7.1625   11.1060 C.ar    1  LIG1       -0.0617
     43 H          12.2257    7.5647   11.9409 H       1  LIG1        0.0618
     44 C           7.3825    2.0377    6.6902 C.ar    1  LIG1       -0.0342
     45 H           7.1203    1.1714    6.9048 H       1  LIG1        0.0637
     46 C           6.4878    2.9429    6.1545 C.ar    1  LIG1       -0.0599
     47 H           5.6107    2.6821    5.9885 H       1  LIG1        0.0618
     48 C           9.0316    6.2065    2.3402 C.ar    1  LIG1       -0.0615
     49 H           8.7472    5.8478    1.5304 H       1  LIG1        0.0618
     50 C          16.5775    7.9160    5.6705 C.3     1  LIG1        0.0820
     51 H          17.1812    7.5962    4.9938 H       1  LIG1        0.0661
     52 H          16.9128    7.6766    6.5367 H       1  LIG1        0.0661
     53 H          16.5035    8.8711    5.6078 H       1  LIG1        0.0661
@<TRIPOS>BOND
     1    49    48    1
     2    41    40    1
     3    48    40   ar
     4    48    32   ar
     5    33    32    1
     6    40    36   ar
     7    32    17   ar
     8    36    37    1
     9    36    21   ar
    10    17    21   ar
    11    17    10    1
    12    19    18    1
    13    11    10    1
    14    21    22    1
    15    51    50    1
    16    18    10    1
    17    18    14    2
    18    10     5    1
    19     3    50    1
    20     3    20    1
    21    29    28    1
    22    53    50    1
    23    50    52    1
    24    26    25    1
    25    28    25   ar
    26    28    46   ar
    27    47    46    1
    28    25    16   ar
    29    46    44   ar
    30    14    20    1
    31    14     8    1
    32    20    13    2
    33     5     6    1
    34     5     7    1
    35     5     8    1
    36    16     7    1
    37    16    27   ar
    38    44    27   ar
    39    44    45    1
    40    12     1    2
    41     7     2    2
    42    27     1    1
    43     8     9    1
    44     8    15    1
    45     2     1    1
    46     1     4    2
    47    24    23    1
    48    15    23   ar
    49    15    30   ar
    50    23    34   ar
    51    31    30    1
    52    30    38   ar
    53    34    35    1
    54    34    42   ar
    55    38    42   ar
    56    38    39    1
    57    42    43    1
