@<TRIPOS>MOLECULE
?
 34 37 0 0 0
SMALL
GASTEIGER

@<TRIPOS>ATOM
      1 O           1.4908    9.2529    3.8903 O.2     1  LIG1       -0.2924
      2 O           3.5614    3.9932    2.6367 O.3     1  LIG1       -0.3556
      3 O           0.7921    5.4698    1.2286 O.2     1  LIG1       -0.2914
      4 O           3.1041    4.1672   -0.2712 O.3     1  LIG1       -0.3660
      5 C           3.3470    8.0273    2.9993 C.2     1  LIG1       -0.0083
      6 C           2.0611    8.2096    3.7015 C.2     1  LIG1        0.1596
      7 C           1.5790    6.8609    4.1727 C.3     1  LIG1        0.0197
      8 H           0.7527    6.6158    3.7266 H       1  LIG1        0.0352
      9 H           1.4281    6.8645    5.1318 H       1  LIG1        0.0352
     10 C           2.7059    5.8875    3.8036 C.3     1  LIG1        0.0237
     11 H           3.1253    5.5680    4.6293 H       1  LIG1        0.0382
     12 C           3.7015    6.7468    3.0604 C.2     1  LIG1       -0.0539
     13 C           4.8370    6.0362    2.3978 C.3     1  LIG1        0.0015
     14 H           5.4847    5.7477    3.0598 H       1  LIG1        0.0339
     15 H           5.2805    6.6264    1.7686 H       1  LIG1        0.0339
     16 C           4.2492    4.8256    1.6669 C.3     1  LIG1        0.1095
     17 C           2.3346    4.6698    2.9399 C.3     1  LIG1        0.1346
     18 C           1.9000    5.1548    1.5593 C.2     1  LIG1        0.1964
     19 C           3.1450    5.1964    0.6960 C.3     1  LIG1        0.1484
     20 H           3.2865    6.0787    0.2938 H       1  LIG1        0.0706
     21 C           4.2543    3.3415   -0.1610 C.3     1  LIG1        0.0514
     22 H           4.7028    3.2822   -1.0186 H       1  LIG1        0.0561
     23 H           3.9961    2.4477    0.1121 H       1  LIG1        0.0561
     24 C           5.1762    3.9442    0.8605 C.3     1  LIG1        0.0030
     25 H           5.8764    4.4654    0.4368 H       1  LIG1        0.0316
     26 H           5.5803    3.2592    1.4149 H       1  LIG1        0.0316
     27 C           1.3668    3.7247    3.6043 C.3     1  LIG1       -0.0281
     28 H           1.2654    2.9380    3.0636 H       1  LIG1        0.0262
     29 H           0.5149    4.1566    3.7034 H       1  LIG1        0.0262
     30 H           1.7030    3.4769    4.4689 H       1  LIG1        0.0262
     31 C           4.0406    9.1680    2.3245 C.3     1  LIG1       -0.0364
     32 H           4.9661    9.1751    2.5804 H       1  LIG1        0.0279
     33 H           3.6292    9.9936    2.5882 H       1  LIG1        0.0279
     34 H           3.9720    9.0662    1.3724 H       1  LIG1        0.0279
@<TRIPOS>BOND
     1    22    21    1
     2     4    21    1
     3     4    19    1
     4    21    23    1
     5    21    24    1
     6    20    19    1
     7    25    24    1
     8    19    18    1
     9    19    16    1
    10    24    26    1
    11    24    16    1
    12     3    18    2
    13    34    31    1
    14    18    17    1
    15    16    13    1
    16    16     2    1
    17    15    13    1
    18    31    32    1
    19    31    33    1
    20    31     5    1
    21    13    14    1
    22    13    12    1
    23     2    17    1
    24    17    27    1
    25    17    10    1
    26     5    12    2
    27     5     6    1
    28    12    10    1
    29    28    27    1
    30    27    29    1
    31    27    30    1
    32     6     1    2
    33     6     7    1
    34     8     7    1
    35    10     7    1
    36    10    11    1
    37     7     9    1
