@<TRIPOS>MOLECULE
1542699.cif
 36 38 0 0 0
SMALL
GASTEIGER

@<TRIPOS>ATOM
      1 C          -0.7422    7.6142   -2.2628 C.ar    1  LIG1       -0.0582
      2 H          -1.5013    8.1374   -2.4917 H       1  LIG1        0.0620
      3 C          -0.5558    6.3701   -2.8602 C.ar    1  LIG1       -0.0615
      4 H          -1.1903    6.0469   -3.4888 H       1  LIG1        0.0618
      5 C           0.5521    5.6030   -2.5401 C.ar    1  LIG1       -0.0617
      6 H           0.6817    4.7559   -2.9508 H       1  LIG1        0.0618
      7 C           1.4682    6.0766   -1.6199 C.ar    1  LIG1       -0.0615
      8 H           2.2313    5.5554   -1.4009 H       1  LIG1        0.0618
      9 C           1.2773    7.3133   -1.0135 C.ar    1  LIG1       -0.0582
     10 H           1.9063    7.6272   -0.3745 H       1  LIG1        0.0620
     11 C           0.1719    8.0958   -1.3364 C.ar    1  LIG1       -0.0418
     12 C          -0.0161    9.4587   -0.6911 C.3     1  LIG1        0.0129
     13 H           0.7638   10.0296   -0.9058 H       1  LIG1        0.0374
     14 H          -0.8218    9.8893   -1.0716 H       1  LIG1        0.0374
     15 C          -0.1634    9.3666    0.7993 C.2     1  LIG1        0.0470
     16 C          -1.3390    8.7079    1.4604 C.3     1  LIG1        0.0890
     17 H          -2.1888    9.1288    1.1787 H       1  LIG1        0.0623
     18 H          -1.3712    7.7410    1.2498 H       1  LIG1        0.0623
     19 C           0.2104    9.5350    2.9759 C.3     1  LIG1        0.2148
     20 C           1.1519    8.5390    3.6465 C.3     1  LIG1        0.1439
     21 H           2.0527    8.9399    3.7403 H       1  LIG1        0.0668
     22 H           0.8161    8.3164    4.5513 H       1  LIG1        0.0668
     23 C           0.1370   10.7941    3.8265 C.ar    1  LIG1        0.0088
     24 C           1.1864   11.7186    3.7935 C.ar    1  LIG1       -0.0539
     25 H           1.9331   11.5648    3.2271 H       1  LIG1        0.0622
     26 C           1.1428   12.8626    4.5866 C.ar    1  LIG1       -0.0613
     27 H           1.8521   13.4937    4.5491 H       1  LIG1        0.0618
     28 C           0.0607   13.0816    5.4334 C.ar    1  LIG1       -0.0617
     29 H           0.0337   13.8563    5.9816 H       1  LIG1        0.0618
     30 C          -0.9821   12.1613    5.4736 C.ar    1  LIG1       -0.0613
     31 H          -1.7210   12.3104    6.0515 H       1  LIG1        0.0618
     32 C          -0.9489   11.0234    4.6716 C.ar    1  LIG1       -0.0539
     33 H          -1.6673   10.4024    4.7002 H       1  LIG1        0.0622
     34 F           1.2278    7.3808    2.8721 F       1  LIG1       -0.2436
     35 N           0.6896    9.8338    1.6237 N.2     1  LIG1       -0.2489
     36 O          -1.0922    8.9241    2.8521 O.3     1  LIG1       -0.3405
@<TRIPOS>BOND
     1     4     3    1
     2     6     5    1
     3     3     5   ar
     4     3     1   ar
     5     5     7   ar
     6     2     1    1
     7     1    11   ar
     8     7     8    1
     9     7     9   ar
    10    11     9   ar
    11    11    12    1
    12    14    12    1
    13     9    10    1
    14    13    12    1
    15    12    15    1
    16    15    16    1
    17    15    35    2
    18    17    16    1
    19    18    16    1
    20    16    36    1
    21    35    19    1
    22    36    19    1
    23    34    20    1
    24    19    20    1
    25    19    23    1
    26    25    24    1
    27    20    21    1
    28    20    22    1
    29    24    23   ar
    30    24    26   ar
    31    23    32   ar
    32    27    26    1
    33    26    28   ar
    34    32    33    1
    35    32    30   ar
    36    28    30   ar
    37    28    29    1
    38    30    31    1
