@<TRIPOS>MOLECULE
?
 32 37 0 0 0
SMALL
GASTEIGER

@<TRIPOS>ATOM
      1 S           4.9219   11.3581   12.9525 S.3     1  LIG1       -0.0879
      2 S           2.0498    8.8458   17.0754 S.3     1  LIG1       -0.0879
      3 S           1.8493    6.8400   11.8624 S.3     1  LIG1       -0.0879
      4 P           3.4864    8.5912   14.0593 P.3     1  LIG1        0.1778
      5 O           4.6428    7.6777   14.2586 O.2     1  LIG1       -0.3063
      6 C           2.9924   10.0185    9.7410 C.ar    1  LIG1       -0.0596
      7 H           2.8956   10.3042    8.8403 H       1  LIG1        0.0618
      8 C           3.7278   10.7942   10.6247 C.ar    1  LIG1       -0.0472
      9 H           4.1232   11.6084   10.3353 H       1  LIG1        0.0629
     10 C           3.8803   10.3656   11.9443 C.ar    1  LIG1        0.0248
     11 C           4.3050   11.1760   14.5944 C.ar    1  LIG1        0.0248
     12 C           4.6347   12.2204   15.4588 C.ar    1  LIG1       -0.0472
     13 H           5.1958   12.9287   15.1660 H       1  LIG1        0.0629
     14 C           4.1346   12.2097   16.7470 C.ar    1  LIG1       -0.0596
     15 H           4.3780   12.9051   17.3467 H       1  LIG1        0.0618
     16 C           3.2865   11.2061   17.1799 C.ar    1  LIG1       -0.0472
     17 H           2.8896   11.2543   18.0427 H       1  LIG1        0.0629
     18 C           3.0144   10.1191   16.3386 C.ar    1  LIG1        0.0248
     19 C           3.5518   10.0745   15.0392 C.ar    1  LIG1        0.0475
     20 C           3.2772    9.1704   12.3838 C.ar    1  LIG1        0.0475
     21 C           2.5375    8.4137   11.4677 C.ar    1  LIG1        0.0248
     22 C           1.3191    6.9739   13.5364 C.ar    1  LIG1        0.0248
     23 C           0.2785    6.1305   13.9110 C.ar    1  LIG1       -0.0472
     24 H          -0.1182    5.5506   13.2716 H       1  LIG1        0.0629
     25 C          -0.1771    6.1380   15.2191 C.ar    1  LIG1       -0.0596
     26 H          -0.8595    5.5314   15.4820 H       1  LIG1        0.0618
     27 C           0.3503    7.0207   16.1475 C.ar    1  LIG1       -0.0472
     28 H          -0.0027    7.0571   17.0292 H       1  LIG1        0.0629
     29 C           1.4067    7.8591   15.7745 C.ar    1  LIG1        0.0248
     30 C           1.9334    7.8205   14.4707 C.ar    1  LIG1        0.0475
     31 C           2.3999    8.8417   10.1428 C.ar    1  LIG1       -0.0472
     32 H           1.9012    8.3238    9.5229 H       1  LIG1        0.0629
@<TRIPOS>BOND
     1     7     6    1
     2    32    31    1
     3     6    31   ar
     4     6     8   ar
     5    31    21   ar
     6     9     8    1
     7     8    10   ar
     8    21     3    1
     9    21    20   ar
    10     3    22    1
    11    10    20   ar
    12    10     1    1
    13    20     4    1
    14     1    11    1
    15    24    23    1
    16    22    23   ar
    17    22    30   ar
    18    23    25   ar
    19     4     5    2
    20     4    30    1
    21     4    19    1
    22    30    29   ar
    23    11    19   ar
    24    11    12   ar
    25    19    18   ar
    26    13    12    1
    27    25    26    1
    28    25    27   ar
    29    12    14   ar
    30    29    27   ar
    31    29     2    1
    32    27    28    1
    33    18     2    1
    34    18    16   ar
    35    14    16   ar
    36    14    15    1
    37    16    17    1
