@<TRIPOS>MOLECULE
C6 H3 Cl3 O, C6 H6 Br N
 27 27 0 0 0
SMALL
GASTEIGER

@<TRIPOS>ATOM
      1 H           7.5438    0.9981   14.6351 H       1  LIG1        0.1423
      2 H           8.2874    2.0295   14.0475 H       1  LIG1        0.1423
      3 H          -0.6319    8.0204    5.8649 H       2  LIG2        0.2921
      4 BR          3.1156    2.6601   10.1880 Br      1  LIG1       -0.0503
      5 CL          1.1910    2.0608    5.5037 Cl      2  LIG2       -0.0805
      6 CL          0.5028    3.6915    8.1189 Cl      2  LIG2       -0.0819
      7 CL          0.9954    3.5413    2.7283 Cl      2  LIG2       -0.0819
      8 O          -0.4204    7.6967    5.1424 O.3     2  LIG2       -0.5067
      9 C           0.0503    5.7749    6.5047 C.ar    2  LIG2       -0.0003
     10 H          -0.1369    6.2442    7.2849 H       2  LIG2        0.0669
     11 C           0.2518    5.7076    4.1098 C.ar    2  LIG2       -0.0003
     12 H           0.1958    6.1310    3.2839 H       2  LIG2        0.0669
     13 C          -0.0472    6.3970    5.2806 C.ar    2  LIG2        0.1197
     14 N           7.5174    1.7697   14.2891 N.pl3   1  LIG1       -0.3580
     15 C           4.5296    2.3332   11.4230 C.ar    1  LIG1        0.0180
     16 C           6.5346    1.9189   13.2728 C.ar    1  LIG1        0.0246
     17 C           0.7289    3.7248    5.4144 C.ar    2  LIG2        0.0777
     18 C           5.6839    3.0737   11.3403 C.ar    1  LIG1       -0.0460
     19 H           5.7830    3.7144   10.6744 H       1  LIG1        0.0629
     20 C           0.4298    4.4429    6.5657 C.ar    2  LIG2        0.0641
     21 C           0.6332    4.3794    4.1968 C.ar    2  LIG2        0.0641
     22 C           5.3621    1.1832   13.3337 C.ar    1  LIG1       -0.0400
     23 H           5.2476    0.5503   14.0062 H       1  LIG1        0.0636
     24 C           6.7005    2.8580   12.2608 C.ar    1  LIG1       -0.0400
     25 H           7.4928    3.3421   12.2010 H       1  LIG1        0.0636
     26 C           4.3613    1.3852   12.4012 C.ar    1  LIG1       -0.0460
     27 H           3.5800    0.8819   12.4371 H       1  LIG1        0.0629
@<TRIPOS>BOND
     1     7    21    1
     2    12    11    1
     3    11    21   ar
     4    11    13   ar
     5    21    17   ar
     6     8    13    1
     7     8     3    1
     8    13     9   ar
     9    17     5    1
    10    17    20   ar
    11     9    20   ar
    12     9    10    1
    13    20     6    1
    14     4    15    1
    15    19    18    1
    16    18    15   ar
    17    18    24   ar
    18    15    26   ar
    19    25    24    1
    20    24    16   ar
    21    26    27    1
    22    26    22   ar
    23    16    22   ar
    24    16    14    1
    25    22    23    1
    26     2    14    1
    27    14     1    1
