@<TRIPOS>MOLECULE
?
 55 59 0 0 0
SMALL
GASTEIGER

@<TRIPOS>ATOM
      1 S           3.5734    1.2137    3.4420 S.O2    1  LIG1        0.0614
      2 N           2.4286    1.8743    2.4888 N.3     1  LIG1       -0.1674
      3 N          -0.4271    5.0116    1.0432 N.2     1  LIG1       -0.2586
      4 O           3.7316   -0.1261    3.0049 O.2     1  LIG1       -0.1528
      5 O           4.6718    2.1055    3.4217 O.2     1  LIG1       -0.1528
      6 C           1.1504    1.1692    2.3311 C.3     1  LIG1        0.0287
      7 H           1.1627    0.3216    2.8023 H       1  LIG1        0.0450
      8 H           0.9593    1.0049    1.3943 H       1  LIG1        0.0450
      9 C           0.1216    2.1133    2.9384 C.3     1  LIG1        0.0077
     10 H           0.1914    2.0542    3.9142 H       1  LIG1        0.0369
     11 C           0.6591    3.4990    2.4994 C.3     1  LIG1        0.0615
     12 C           2.2126    3.3347    2.5882 C.3     1  LIG1        0.0719
     13 H           2.5060    3.6320    3.4756 H       1  LIG1        0.0542
     14 C           2.9559    4.1319    1.5504 C.ar    1  LIG1       -0.0274
     15 C           3.0721    5.4967    1.6991 C.ar    1  LIG1       -0.0570
     16 H           2.7314    5.9070    2.4624 H       1  LIG1        0.0621
     17 C           3.6875    6.2643    0.7309 C.ar    1  LIG1       -0.0615
     18 H           3.7402    7.1867    0.8358 H       1  LIG1        0.0618
     19 C           4.2187    5.6775   -0.3760 C.ar    1  LIG1       -0.0617
     20 H           4.6501    6.1948   -1.0170 H       1  LIG1        0.0618
     21 C           4.1139    4.3153   -0.5435 C.ar    1  LIG1       -0.0615
     22 H           4.4736    3.9111   -1.3006 H       1  LIG1        0.0618
     23 C           3.4779    3.5503    0.4110 C.ar    1  LIG1       -0.0570
     24 H           3.3984    2.6323    0.2861 H       1  LIG1        0.0621
     25 C           0.1847    3.9032    1.1205 C.2     1  LIG1        0.0188
     26 H           0.3339    3.3704    0.3736 H       1  LIG1        0.0792
     27 C          -0.4756    5.5263    2.3537 C.ar    1  LIG1        0.0676
     28 C           0.1304    4.6752    3.2629 C.ar    1  LIG1       -0.0082
     29 C           0.1474    4.9855    4.5976 C.ar    1  LIG1       -0.0556
     30 H           0.5501    4.4222    5.2185 H       1  LIG1        0.0621
     31 C          -0.4652    6.1800    4.9923 C.ar    1  LIG1       -0.0613
     32 H          -0.4846    6.4043    5.8944 H       1  LIG1        0.0618
     33 C          -1.0325    7.0172    4.0866 C.ar    1  LIG1       -0.0597
     34 H          -1.4158    7.8117    4.3814 H       1  LIG1        0.0618
     35 C          -1.0540    6.7190    2.7485 C.ar    1  LIG1       -0.0360
     36 H          -1.4415    7.2962    2.1314 H       1  LIG1        0.0639
     37 C          -1.2898    1.8464    2.5586 C.2     1  LIG1       -0.0855
     38 H          -1.4717    1.6934    1.6591 H       1  LIG1        0.0570
     39 C          -2.2814    1.8108    3.3807 C.2     1  LIG1       -0.1023
     40 H          -2.1385    1.9586    4.2877 H       1  LIG1        0.0532
     41 H          -3.1395    1.6369    3.0671 H       1  LIG1        0.0532
     42 C           2.9606    1.1484    5.0867 C.ar    1  LIG1        0.1055
     43 C           3.2286    2.1620    5.9731 C.ar    1  LIG1       -0.0351
     44 H           3.7062    2.9087    5.6920 H       1  LIG1        0.0637
     45 C           2.7958    2.0759    7.2724 C.ar    1  LIG1       -0.0570
     46 H           2.9978    2.7653    7.8621 H       1  LIG1        0.0621
     47 C           2.0739    0.9997    7.7246 C.ar    1  LIG1       -0.0503
     48 C           1.7785    0.0191    6.8114 C.ar    1  LIG1       -0.0570
     49 H           1.2669   -0.7076    7.0812 H       1  LIG1        0.0621
     50 C           2.2145    0.0756    5.5121 C.ar    1  LIG1       -0.0351
     51 H           2.0065   -0.6103    4.9199 H       1  LIG1        0.0637
     52 C           1.6598    0.8763    9.1539 C.3     1  LIG1       -0.0397
     53 H           0.8192    0.4155    9.2051 H       1  LIG1        0.0278
     54 H           1.5676    1.7517    9.5374 H       1  LIG1        0.0278
     55 H           2.3250    0.3825    9.6386 H       1  LIG1        0.0278
@<TRIPOS>BOND
     1    22    21    1
     2    20    19    1
     3    21    19   ar
     4    21    23   ar
     5    19    17   ar
     6    24    23    1
     7    26    25    1
     8    23    14   ar
     9    17    18    1
    10    17    15   ar
    11     3    25    2
    12     3    27    1
    13    25    11    1
    14     8     6    1
    15    14    15   ar
    16    14    12    1
    17    38    37    1
    18    15    16    1
    19    36    35    1
    20     6     2    1
    21     6     7    1
    22     6     9    1
    23    27    35   ar
    24    27    28   ar
    25     2    12    1
    26     2     1    1
    27    11    12    1
    28    11     9    1
    29    11    28    1
    30    37     9    1
    31    37    39    2
    32    12    13    1
    33    35    33   ar
    34     9    10    1
    35     4     1    2
    36    41    39    1
    37    28    29   ar
    38    39    40    1
    39     5     1    2
    40     1    42    1
    41    33    34    1
    42    33    31   ar
    43    29    31   ar
    44    29    30    1
    45    51    50    1
    46    31    32    1
    47    42    50   ar
    48    42    43   ar
    49    50    48   ar
    50    44    43    1
    51    43    45   ar
    52    48    49    1
    53    48    47   ar
    54    45    47   ar
    55    45    46    1
    56    47    52    1
    57    52    53    1
    58    52    54    1
    59    52    55    1
