@<TRIPOS>MOLECULE
?
 45 48 0 0 0
SMALL
GASTEIGER

@<TRIPOS>ATOM
      1 C           5.1509    6.1322    3.4638 C.3     1  LIG1        0.0370
      2 C           5.0061    7.3302    2.4910 C.3     1  LIG1       -0.0221
      3 H           5.0413    8.1408    3.0406 H       1  LIG1        0.0316
      4 O           2.9711    5.7099    4.4431 O.2     1  LIG1       -0.2959
      5 C           4.5412    7.0719    5.6589 C.3     1  LIG1        0.1216
      6 H           4.0183    7.8982    5.7324 H       1  LIG1        0.0496
      7 O           3.5894    5.7422    7.4502 O.2     1  LIG1       -0.2500
      8 O           5.7402    6.2980    7.4991 O.3     1  LIG1       -0.4608
      9 C           3.7092    7.3956    1.7106 C.3     1  LIG1       -0.0485
     10 H           2.9609    7.3765    2.3267 H       1  LIG1        0.0268
     11 H           3.6419    6.6208    1.1329 H       1  LIG1        0.0268
     12 C           6.1997    7.4000    1.5376 C.3     1  LIG1       -0.0189
     13 H           6.1206    6.6514    0.9105 H       1  LIG1        0.0346
     14 C           6.4165    6.3565    4.3095 C.3     1  LIG1       -0.0032
     15 H           6.6396    5.5101    4.7493 H       1  LIG1        0.0357
     16 C           4.0622    6.2256    4.4984 C.2     1  LIG1        0.1541
     17 C           6.0071    7.3738    5.4056 C.3     1  LIG1        0.0227
     18 H           6.1191    8.2926    5.0817 H       1  LIG1        0.0354
     19 C           6.1191    8.6931    0.7268 C.3     1  LIG1       -0.0439
     20 H           6.1950    9.4496    1.3295 H       1  LIG1        0.0274
     21 H           6.8673    8.7280    0.1100 H       1  LIG1        0.0274
     22 C           3.6395    8.6591    0.8724 C.3     1  LIG1       -0.0501
     23 H           3.5949    9.4278    1.4606 H       1  LIG1        0.0268
     24 H           2.8263    8.6434    0.3441 H       1  LIG1        0.0268
     25 C           6.6450    7.2063    6.7941 C.3     1  LIG1        0.1048
     26 H           6.6309    8.0745    7.2491 H       1  LIG1        0.0734
     27 C           4.5208    6.2997    6.9594 C.2     1  LIG1        0.3181
     28 C           5.1204    4.7780    2.7492 C.3     1  LIG1       -0.0520
     29 H           4.2907    4.6855    2.2752 H       1  LIG1        0.0239
     30 H           5.1994    4.0730    3.3964 H       1  LIG1        0.0239
     31 H           5.8514    4.7274    2.1300 H       1  LIG1        0.0239
     32 C           4.8308    8.8127   -0.0550 C.3     1  LIG1       -0.0433
     33 H           4.8042    8.0754   -0.6999 H       1  LIG1        0.0298
     34 C           7.4856    7.2395    2.2688 C.2     1  LIG1       -0.0842
     35 H           8.2668    7.4829    1.8257 H       1  LIG1        0.0572
     36 C           7.5984    6.7788    3.4930 C.2     1  LIG1       -0.0832
     37 H           8.4460    6.7116    3.8692 H       1  LIG1        0.0572
     38 C           4.7541   10.1180   -0.8415 C.3     1  LIG1       -0.0624
     39 H           4.7627   10.8596   -0.2317 H       1  LIG1        0.0232
     40 H           3.9440   10.1354   -1.3553 H       1  LIG1        0.0232
     41 H           5.5086   10.1808   -1.4325 H       1  LIG1        0.0232
     42 C           8.0398    6.6549    6.8646 C.3     1  LIG1       -0.0274
     43 H           8.3325    6.6400    7.7781 H       1  LIG1        0.0265
     44 H           8.6299    7.2098    6.3480 H       1  LIG1        0.0265
     45 H           8.0492    5.7623    6.5118 H       1  LIG1        0.0265
@<TRIPOS>BOND
     1    41    38    1
     2    40    38    1
     3    38    39    1
     4    38    32    1
     5    33    32    1
     6    32    19    1
     7    32    22    1
     8    21    19    1
     9    24    22    1
    10    19    20    1
    11    19    12    1
    12    22    23    1
    13    22     9    1
    14    13    12    1
    15    11     9    1
    16    12    34    1
    17    12     2    1
    18     9    10    1
    19     9     2    1
    20    35    34    1
    21    31    28    1
    22    34    36    2
    23    29    28    1
    24     2     3    1
    25     2     1    1
    26    28    30    1
    27    28     1    1
    28     1    14    1
    29     1    16    1
    30    36    37    1
    31    36    14    1
    32    14    15    1
    33    14    17    1
    34     4    16    2
    35    16     5    1
    36    18    17    1
    37    17     5    1
    38    17    25    1
    39     5     6    1
    40     5    27    1
    41    44    42    1
    42    45    42    1
    43    25    42    1
    44    25    26    1
    45    25     8    1
    46    42    43    1
    47    27     7    2
    48    27     8    1
