@<TRIPOS>MOLECULE
C6 H3 Cl3 O, C6 H5 Cl2 N
 54 54 0 0 0
SMALL
GASTEIGER

@<TRIPOS>ATOM
      1 H          -5.7340   10.0254    1.0048 H       1  LIG1        0.1424
      2 H           5.7200    4.7869    1.5398 H       2  LIG2        0.1424
      3 H          -6.6724   10.4090    1.9417 H       1  LIG1        0.1424
      4 H           6.2207    4.4080    2.7925 H       2  LIG2        0.1424
      5 H           1.3162   -3.0469    1.0048 H       3  LIG3        0.2921
      6 H           5.3544    2.4901    1.7095 H       4  LIG4        0.2921
      7 CL          1.5846    2.5657    0.5412 Cl      3  LIG3       -0.0819
      8 CL         -1.4748    8.2440    3.0713 Cl      1  LIG1       -0.0835
      9 CL          4.5799   -3.0588    2.0752 Cl      4  LIG4       -0.0819
     10 CL          1.2962   -0.2563    5.1490 Cl      3  LIG3       -0.0819
     11 CL          1.4983    2.5255    3.6832 Cl      3  LIG3       -0.0805
     12 CL         -6.8291   11.0621    4.4726 Cl      1  LIG1       -0.0816
     13 CL          4.8628    0.4247    6.2092 Cl      4  LIG4       -0.0819
     14 CL          4.4037   -2.5241    5.1599 Cl      4  LIG4       -0.0805
     15 CL          0.9857    6.5883    1.5535 Cl      2  LIG2       -0.0835
     16 CL          5.5043    4.5835    5.2974 Cl      2  LIG2       -0.0816
     17 O           1.3940   -2.4595    0.5750 O.3     3  LIG3       -0.5067
     18 N           5.5375    4.4197    2.3105 N.pl3   2  LIG2       -0.3568
     19 C           1.4487    1.0530    2.7831 C.ar    3  LIG3        0.0777
     20 N          -5.9043   10.4244    1.6989 N.pl3   1  LIG1       -0.3568
     21 O           5.1930    1.8578    1.3335 O.3     4  LIG4       -0.5067
     22 C           1.3443   -1.3722    2.7201 C.ar    3  LIG3       -0.0003
     23 H           1.2947   -2.1854    3.1684 H       3  LIG3        0.0669
     24 C           1.4785   -0.1186    0.6699 C.ar    3  LIG3       -0.0003
     25 H           1.5200   -0.0928   -0.2584 H       3  LIG3        0.0669
     26 C           1.4961    1.0559    1.3982 C.ar    3  LIG3        0.0641
     27 C          -3.2571    9.3210    4.7888 C.ar    1  LIG1       -0.0419
     28 H          -2.6527    9.1051    5.4611 H       1  LIG1        0.0633
     29 C           4.9108   -0.4241    1.8017 C.ar    4  LIG4       -0.0003
     30 H           4.9330   -0.6001    0.8887 H       4  LIG4        0.0669
     31 C           1.3655   -0.1817    3.4256 C.ar    3  LIG3        0.0641
     32 C           4.7040   -1.2260    4.0658 C.ar    4  LIG4        0.0777
     33 C          -5.3324   10.2679    4.0771 C.ar    1  LIG1        0.0616
     34 C           3.3621    5.4487    2.0540 C.ar    2  LIG2       -0.0213
     35 H           3.4441    5.3994    1.1288 H       2  LIG2        0.0651
     36 C           4.8587    0.0837    4.5118 C.ar    4  LIG4        0.0641
     37 C          -5.0488    9.9969    2.7380 C.ar    1  LIG1        0.0445
     38 C           5.0440    0.8842    2.2627 C.ar    4  LIG4        0.1197
     39 C           5.0336    1.1328    3.6327 C.ar    4  LIG4       -0.0003
     40 H           5.1432    1.9998    3.9526 H       4  LIG4        0.0669
     41 C          -4.4568    9.9338    5.0879 C.ar    1  LIG1       -0.0402
     42 H          -4.6743   10.1213    5.9727 H       1  LIG1        0.0633
     43 C          -2.9770    9.0369    3.4716 C.ar    1  LIG1        0.0428
     44 C          -3.8498    9.3616    2.4433 C.ar    1  LIG1       -0.0213
     45 H          -3.6338    9.1546    1.5633 H       1  LIG1        0.0651
     46 C           2.0330    6.0440    3.9845 C.ar    2  LIG2       -0.0419
     47 H           1.2477    6.3877    4.3454 H       2  LIG2        0.0633
     48 C           1.3986   -1.3323    1.3274 C.ar    3  LIG3        0.1197
     49 C           4.7481   -1.4461    2.6930 C.ar    4  LIG4        0.0641
     50 C           4.2040    5.0790    4.2599 C.ar    2  LIG2        0.0616
     51 C           4.3882    4.9896    2.8715 C.ar    2  LIG2        0.0445
     52 C           2.2164    5.9809    2.6230 C.ar    2  LIG2        0.0428
     53 C           3.0402    5.5856    4.7964 C.ar    2  LIG2       -0.0402
     54 H           2.9360    5.6174    5.7195 H       2  LIG2        0.0633
@<TRIPOS>BOND
     1    25    24    1
     2     7    26    1
     3    17     5    1
     4    17    48    1
     5    24    48   ar
     6    24    26   ar
     7    30    29    1
     8     1    20    1
     9    35    34    1
    10    48    22   ar
    11    21     6    1
    12    21    38    1
    13    26    19   ar
    14     2    18    1
    15    15    52    1
    16    45    44    1
    17    20     3    1
    18    20    37    1
    19    29    38   ar
    20    29    49   ar
    21    34    52   ar
    22    34    51   ar
    23     9    49    1
    24    38    39   ar
    25    18     4    1
    26    18    51    1
    27    44    37   ar
    28    44    43   ar
    29    52    46   ar
    30    49    32   ar
    31    22    23    1
    32    22    31   ar
    33    37    33   ar
    34    19    31   ar
    35    19    11    1
    36    51    50   ar
    37     8    43    1
    38    31    10    1
    39    43    27   ar
    40    39    40    1
    41    39    36   ar
    42    46    47    1
    43    46    53   ar
    44    32    36   ar
    45    32    14    1
    46    33    12    1
    47    33    41   ar
    48    50    53   ar
    49    50    16    1
    50    36    13    1
    51    27    41   ar
    52    27    28    1
    53    53    54    1
    54    41    42    1
