@<TRIPOS>MOLECULE
?
 25 25 0 0 0
SMALL
GASTEIGER

@<TRIPOS>ATOM
      1 O           0.1172    9.0435    0.2874 O.2     1  LIG1       -0.2697
      2 O           2.6651    1.9119    3.5669 O.3     1  LIG1       -0.4951
      3 C           1.2032    7.0097    1.7780 C.2     1  LIG1       -0.0321
      4 H           0.7515    6.9205    0.9702 H       1  LIG1        0.0638
      5 C           2.2543    5.5559    3.5752 C.ar    1  LIG1       -0.0511
      6 H           2.4319    6.2955    4.1095 H       1  LIG1        0.0625
      7 C           1.3205    8.2843    2.1809 C.2     1  LIG1        0.1136
      8 C           1.6321    5.7469    2.3352 C.ar    1  LIG1       -0.0234
      9 N           0.9425   10.6130    1.6528 N.am    1  LIG1       -0.3248
     10 H           0.6203   11.2493    1.1735 H       1  LIG1        0.1453
     11 H           1.3898   10.7945    2.3654 H       1  LIG1        0.1453
     12 C           1.3915    4.6050    1.5706 C.ar    1  LIG1       -0.0511
     13 H           0.9697    4.6963    0.7461 H       1  LIG1        0.0625
     14 C           2.3613    3.1985    3.2259 C.ar    1  LIG1        0.1201
     15 C           1.7552    3.3576    1.9905 C.ar    1  LIG1       -0.0194
     16 H           1.5965    2.6175    1.4484 H       1  LIG1        0.0654
     17 N           2.4813    9.0712    4.3375 N.1     1  LIG1       -0.1907
     18 C           0.7502    9.3547    1.2968 C.2     1  LIG1        0.2518
     19 C           2.6111    4.3060    4.0266 C.ar    1  LIG1       -0.0194
     20 H           3.0143    4.2038    4.8579 H       1  LIG1        0.0654
     21 C           1.9693    8.6942    3.3841 C.1     1  LIG1        0.1044
     22 C           3.2899    1.6781    4.8224 C.3     1  LIG1        0.0788
     23 H           4.1129    2.1703    4.8672 H       1  LIG1        0.0660
     24 H           3.4722    0.7403    4.9203 H       1  LIG1        0.0660
     25 H           2.7064    1.9656    5.5278 H       1  LIG1        0.0660
@<TRIPOS>BOND
     1     1    18    2
     2    13    12    1
     3     4     3    1
     4    10     9    1
     5    18     9   am
     6    18     7    1
     7    16    15    1
     8    12    15   ar
     9    12     8   ar
    10     9    11    1
    11     3     7    2
    12     3     8    1
    13    15    14   ar
    14     7    21    1
    15     8     5   ar
    16    14     2    1
    17    14    19   ar
    18    21    17    3
    19     2    22    1
    20     5    19   ar
    21     5     6    1
    22    19    20    1
    23    22    23    1
    24    22    24    1
    25    22    25    1
