@<TRIPOS>MOLECULE
Bis(2-amino-1-methyl-4-oxo-1<i>H</i>-imidazol-3-ium) 3-nitrobenzene-1,2-dioate monohydrate
 53 52 0 0 0
SMALL
GASTEIGER

@<TRIPOS>ATOM
      1 O           2.0309    4.0280    6.1058 O.co2   1  LIG1       -0.2405
      2 O          -2.0436    6.5955    7.1529 O.co2   1  LIG1       -0.2406
      3 O          -0.7508    5.9601    5.4583 O.co2   1  LIG1       -0.2406
      4 O          -1.3358   -0.0036    5.2462 O.2     2  LIG2       -0.2743
      5 O           1.5512    5.6885    7.5153 O.co2   1  LIG1       -0.2405
      6 O           2.5813   -3.8869    4.9339 O.2     3  LIG3       -0.2743
      7 N           0.1540    2.3900    3.1834 N.3     2  LIG2       -0.2600
      8 N           3.6239   -2.5176    3.4169 N.am    3  LIG3       -0.2800
      9 H           3.9728   -3.1148    2.9064 H       3  LIG3        0.1519
     10 C          -1.1955    4.3979    7.1577 C.ar    1  LIG1        0.0794
     11 C           0.1183    2.5742    7.9125 C.ar    1  LIG1        0.1411
     12 O           2.2156    2.6985    8.8329 O.2     1  LIG1       -0.1261
     13 N           1.4254    2.0024    8.2168 N.pl3   1  LIG1        0.0573
     14 N           3.0696   -0.5089    4.1655 N.3     3  LIG3       -0.2600
     15 N           1.1123    1.0327    1.5177 N.3     2  LIG2       -0.2935
     16 H           1.4477    1.7014    1.0935 H       2  LIG2        0.1216
     17 H           1.2313    0.2334    1.2231 H       2  LIG2        0.1216
     18 C           0.0688    3.8493    7.3777 C.ar    1  LIG1        0.1073
     19 N           4.4494   -0.6695    2.2657 N.3     3  LIG3       -0.2935
     20 H           4.5072    0.1837    2.1757 H       3  LIG3        0.1216
     21 H           4.8552   -1.1883    1.7124 H       3  LIG3        0.1216
     22 N          -0.0881    0.2026    3.3292 N.am    2  LIG2       -0.2800
     23 H           0.0044   -0.6289    3.1300 H       2  LIG2        0.1519
     24 O           1.6659    0.8712    7.8409 O.2     1  LIG1       -0.1261
     25 C          -2.3361    3.6565    7.4485 C.ar    1  LIG1       -0.0467
     26 H          -3.1755    4.0317    7.3113 H       1  LIG1        0.0626
     27 C           0.4241    1.2305    2.6060 C.3     2  LIG2        0.1917
     28 C          -0.9987    1.8205    8.1989 C.ar    1  LIG1       -0.0306
     29 H          -0.9204    0.9665    8.5571 H       1  LIG1        0.0640
     30 C           1.3287    4.5889    6.9734 C.2     1  LIG1        0.3895
     31 C          -2.2364    2.3703    7.9389 C.ar    1  LIG1       -0.0588
     32 H          -3.0064    1.8735    8.0954 H       1  LIG1        0.0618
     33 C          -1.3336    5.7693    6.5484 C.2     1  LIG1        0.3874
     34 C           2.4807   -1.4503    5.1009 C.3     3  LIG3        0.0784
     35 H           1.5166   -1.3489    5.1388 H       3  LIG3        0.0523
     36 H           2.8476   -1.3356    5.9910 H       3  LIG3        0.0523
     37 C           3.7503   -1.1739    3.2348 C.3     3  LIG3        0.1917
     38 C           2.8654   -2.7877    4.5237 C.2     3  LIG3        0.2296
     39 C          -0.7716    0.6701    4.4194 C.2     2  LIG2        0.2296
     40 C           3.2053    0.9055    4.4631 C.3     3  LIG3       -0.0090
     41 H           3.8852    1.0278    5.1291 H       3  LIG3        0.0392
     42 H           2.3692    1.2446    4.7921 H       3  LIG3        0.0392
     43 H           3.4497    1.3786    3.6646 H       3  LIG3        0.0392
     44 C          -0.6576    2.1739    4.3654 C.3     2  LIG2        0.0784
     45 H          -1.5296    2.5885    4.2737 H       2  LIG2        0.0523
     46 H          -0.2216    2.5223    5.1599 H       2  LIG2        0.0523
     47 C           0.5455    3.7017    2.7262 C.3     2  LIG2       -0.0090
     48 H           1.3490    3.6328    2.2049 H       2  LIG2        0.0392
     49 H           0.7034    4.2700    3.4831 H       2  LIG2        0.0392
     50 H          -0.1542    4.0747    2.1855 H       2  LIG2        0.0392
     51 O          -3.1687    6.2978    9.6837 O.3     4  HOH4       -0.4105
     52 H          -2.9011    6.2925    8.8714 H       0  HOH0        0.2052
     53 H          -3.3949    5.4931    9.8467 H       0  HOH0        0.2052
@<TRIPOS>BOND
     1    16    15    1
     2    17    15    1
     3    15    27    1
     4    21    19    1
     5    20    19    1
     6    50    47    1
     7    48    47    1
     8    19    37    1
     9    27     7    1
    10    27    22    1
    11    47     7    1
    12    47    49    1
    13     9     8    1
    14    23    22    1
    15     7    44    1
    16    37     8    1
    17    37    14    1
    18    22    39   am
    19     8    38   am
    20    43    40    1
    21    14    40    1
    22    14    34    1
    23    45    44    1
    24    44    39    1
    25    44    46    1
    26    39     4    2
    27    40    42    1
    28    40    41    1
    29    38     6    2
    30    38    34    1
    31    34    35    1
    32    34    36    1
    33     3    33   ar
    34     1    30   ar
    35    33     2   ar
    36    33    10    1
    37    30    18    1
    38    30     5   ar
    39    10    18   ar
    40    10    25   ar
    41    26    25    1
    42    18    11   ar
    43    25    31   ar
    44    24    13    2
    45    11    28   ar
    46    11    13    1
    47    31    32    1
    48    31    28   ar
    49    28    29    1
    50    13    12    2
    51    52    51    1
    52    51    53    1
