@<TRIPOS>MOLECULE
(3<i>S</i>,4<i>S</i>)-4-Phenyl-1,5-bis(prop-2-en-1-yl)-3-(prop-2-en-1-yloxy)-2,3,4,5-tetrahydro-1<i>H</i>-1,5-benzodiazepin-2-one
 54 56 0 0 0
SMALL
GASTEIGER

@<TRIPOS>ATOM
      1 O           3.4930    2.5145    0.2642 O.2     1  LIG1       -0.2723
      2 O           6.0483    2.5865    1.1669 O.3     1  LIG1       -0.3611
      3 N           2.6098    2.9235    2.3048 N.am    1  LIG1       -0.2637
      4 N           4.0784    5.2824    2.5788 N.pl3   1  LIG1       -0.3146
      5 C           3.4287    4.7477    3.7229 C.ar    1  LIG1        0.0523
      6 C           3.4223    5.3868    4.9690 C.ar    1  LIG1       -0.0388
      7 H           3.8865    6.2081    5.0779 H       1  LIG1        0.0637
      8 C           2.7454    4.8312    6.0460 C.ar    1  LIG1       -0.0599
      9 H           2.7454    5.2783    6.8842 H       1  LIG1        0.0618
     10 C           2.0725    3.6330    5.9069 C.ar    1  LIG1       -0.0599
     11 H           1.6136    3.2552    6.6480 H       1  LIG1        0.0618
     12 C           2.0709    2.9841    4.6815 C.ar    1  LIG1       -0.0385
     13 H           1.6230    2.1521    4.5891 H       1  LIG1        0.0637
     14 C           2.7198    3.5432    3.5858 C.ar    1  LIG1        0.0577
     15 C           3.6482    2.8422    1.4334 C.2     1  LIG1        0.2512
     16 C           5.0419    3.0819    2.0248 C.3     1  LIG1        0.1575
     17 H           5.1104    2.6356    2.9166 H       1  LIG1        0.0716
     18 C           5.3201    4.5833    2.1755 C.3     1  LIG1        0.0838
     19 H           5.5545    4.9219    1.2639 H       1  LIG1        0.0580
     20 C           6.5200    4.8766    3.0686 C.ar    1  LIG1       -0.0241
     21 C           7.5286    5.7130    2.5989 C.ar    1  LIG1       -0.0567
     22 H           7.4669    6.0784    1.7237 H       1  LIG1        0.0621
     23 C           8.6261    6.0215    3.3938 C.ar    1  LIG1       -0.0614
     24 H           9.2976    6.6082    3.0668 H       1  LIG1        0.0618
     25 C           8.7446    5.4792    4.6601 C.ar    1  LIG1       -0.0617
     26 H           9.5012    5.6801    5.1990 H       1  LIG1        0.0618
     27 C           7.7505    4.6401    5.1373 C.ar    1  LIG1       -0.0614
     28 H           7.8305    4.2597    6.0043 H       1  LIG1        0.0618
     29 C           6.6367    4.3503    4.3574 C.ar    1  LIG1       -0.0567
     30 H           5.9512    3.7903    4.7031 H       1  LIG1        0.0621
     31 C           1.2678    2.6098    1.7937 C.3     1  LIG1        0.0378
     32 H           0.6760    2.4009    2.5593 H       1  LIG1        0.0512
     33 H           1.3233    1.8000    1.2267 H       1  LIG1        0.0512
     34 C           0.6560    3.7032    1.0044 C.2     1  LIG1       -0.0736
     35 H           0.8202    4.5939    1.2907 H       1  LIG1        0.0582
     36 C          -0.0650    3.5459   -0.0186 C.2     1  LIG1       -0.1011
     37 H          -0.2520    2.6703   -0.3375 H       1  LIG1        0.0532
     38 H          -0.4200    4.3023   -0.4702 H       1  LIG1        0.0532
     39 C           6.1145    1.1618    1.1059 C.3     1  LIG1        0.0667
     40 H           6.4280    0.8942    0.2060 H       1  LIG1        0.0604
     41 H           5.2033    0.7938    1.2279 H       1  LIG1        0.0604
     42 C           7.0172    0.5618    2.1288 C.2     1  LIG1       -0.0658
     43 H           7.0358   -0.3867    2.1799 H       1  LIG1        0.0589
     44 C           7.7885    1.2134    2.9648 C.2     1  LIG1       -0.1005
     45 H           7.8053    2.1636    2.9539 H       1  LIG1        0.0532
     46 H           8.3304    0.7360    3.5824 H       1  LIG1        0.0532
     47 C           4.2003    6.7461    2.5064 C.3     1  LIG1        0.0308
     48 H           4.7344    6.9931    1.7097 H       1  LIG1        0.0507
     49 H           4.6768    7.0766    3.3088 H       1  LIG1        0.0507
     50 C           2.8608    7.3922    2.4240 C.2     1  LIG1       -0.0740
     51 H           2.2802    7.0979    1.7318 H       1  LIG1        0.0582
     52 C           2.4132    8.3282    3.2204 C.2     1  LIG1       -0.1012
     53 H           2.9595    8.6526    3.9257 H       1  LIG1        0.0532
     54 H           1.5419    8.6838    3.0924 H       1  LIG1        0.0532
@<TRIPOS>BOND
     1    38    36    1
     2    37    36    1
     3    36    34    2
     4    40    39    1
     5     1    15    2
     6    34    35    1
     7    34    31    1
     8    39     2    1
     9    39    41    1
    10    39    42    1
    11     2    16    1
    12    33    31    1
    13    19    18    1
    14    15    16    1
    15    15     3   am
    16    48    47    1
    17    22    21    1
    18    51    50    1
    19    31     3    1
    20    31    32    1
    21    16    18    1
    22    16    17    1
    23    42    43    1
    24    42    44    2
    25    18     4    1
    26    18    20    1
    27     3    14    1
    28    50    47    1
    29    50    52    2
    30    47     4    1
    31    47    49    1
    32     4     5    1
    33    21    20   ar
    34    21    23   ar
    35    45    44    1
    36    44    46    1
    37    24    23    1
    38    20    29   ar
    39    54    52    1
    40    52    53    1
    41    23    25   ar
    42    14     5   ar
    43    14    12   ar
    44     5     6   ar
    45    29    30    1
    46    29    27   ar
    47    13    12    1
    48    25    27   ar
    49    25    26    1
    50    12    10   ar
    51     6     7    1
    52     6     8   ar
    53    27    28    1
    54    10     8   ar
    55    10    11    1
    56     8     9    1
