@<TRIPOS>MOLECULE
5-Bromo-1-(6-bromohexyl)indoline-2,3-dione
 34 35 0 0 0
SMALL
GASTEIGER

@<TRIPOS>ATOM
      1 BR          4.5205    9.4313   23.8053 Br      1  LIG1       -0.0503
      2 BR          2.2418    7.5864   11.6417 Br      1  LIG1       -0.0918
      3 C           3.3808    9.0508   22.3308 C.ar    1  LIG1        0.0187
      4 C           3.0619   10.0699   21.4426 C.ar    1  LIG1       -0.0460
      5 H           3.4410   10.9122   21.5557 H       1  LIG1        0.0629
      6 C           2.1856    9.8501   20.3887 C.ar    1  LIG1       -0.0385
      7 H           1.9580   10.5346   19.8012 H       1  LIG1        0.0637
      8 C           1.6642    8.5823   20.2419 C.ar    1  LIG1        0.0477
      9 C           2.0150    7.5619   21.1237 C.ar    1  LIG1        0.0494
     10 C           2.8729    7.7791   22.1751 C.ar    1  LIG1       -0.0350
     11 H           3.1018    7.0921   22.7600 H       1  LIG1        0.0636
     12 C           1.2884    6.3609   20.7000 C.2     1  LIG1        0.2496
     13 C           0.4523    6.8004   19.4744 C.2     1  LIG1        0.2913
     14 C           0.1692    8.9295   18.2004 C.3     1  LIG1        0.0202
     15 H          -0.0463    9.8085   18.5513 H       1  LIG1        0.0469
     16 H          -0.6590    8.5153   17.9124 H       1  LIG1        0.0469
     17 C           1.0766    9.0912   17.0042 C.3     1  LIG1       -0.0367
     18 H           1.8908    9.5344   17.2887 H       1  LIG1        0.0280
     19 H           0.6391    9.6658   16.3582 H       1  LIG1        0.0280
     20 C           1.4464    7.7854   16.3232 C.3     1  LIG1       -0.0516
     21 H           0.6368    7.2853   16.1351 H       1  LIG1        0.0266
     22 H           1.9891    7.2550   16.9287 H       1  LIG1        0.0266
     23 C           2.2115    7.9963   15.0261 C.3     1  LIG1       -0.0523
     24 H           1.6591    8.5090   14.4161 H       1  LIG1        0.0266
     25 H           3.0077    8.5179   15.2122 H       1  LIG1        0.0266
     26 C           2.6194    6.7082   14.3489 C.3     1  LIG1       -0.0434
     27 H           3.1709    6.1980   14.9638 H       1  LIG1        0.0273
     28 H           1.8209    6.1867   14.1727 H       1  LIG1        0.0273
     29 C           3.3711    6.8800   13.0648 C.3     1  LIG1        0.0033
     30 H           3.7321    6.0225   12.7884 H       1  LIG1        0.0382
     31 H           4.1158    7.4849   13.2093 H       1  LIG1        0.0382
     32 N           0.7549    8.1226   19.2729 N.am    1  LIG1       -0.2641
     33 O           1.2782    5.2471   21.1541 O.2     1  LIG1       -0.2817
     34 O          -0.3212    6.1248   18.8348 O.2     1  LIG1       -0.2661
@<TRIPOS>BOND
     1     2    29    1
     2    30    29    1
     3    29    31    1
     4    29    26    1
     5    28    26    1
     6    26    27    1
     7    26    23    1
     8    24    23    1
     9    23    25    1
    10    23    20    1
    11    21    20    1
    12    20    22    1
    13    20    17    1
    14    19    17    1
    15    17    18    1
    16    17    14    1
    17    16    14    1
    18    14    15    1
    19    14    32    1
    20    34    13    2
    21    32    13   am
    22    32     8    1
    23    13    12    1
    24     7     6    1
    25     8     6   ar
    26     8     9   ar
    27     6     4   ar
    28    12     9    1
    29    12    33    2
    30     9    10   ar
    31     4     5    1
    32     4     3   ar
    33    10     3   ar
    34    10    11    1
    35     3     1    1
