@<TRIPOS>MOLECULE
?
 32 32 0 0 0
SMALL
GASTEIGER

@<TRIPOS>ATOM
      1 S           1.7898   -1.0806    8.3208 S.3     1  LIG1       -0.1360
      2 S           6.1736   -2.1313    6.2681 S.2     1  LIG1       -0.0759
      3 N           6.2151   -3.9248    8.4793 N.pl3   1  LIG1       -0.1269
      4 N           4.0121   -0.7951    6.6061 N.ar    1  LIG1       -0.2476
      5 C           2.9631   -2.2479    8.8377 C.3     1  LIG1        0.0872
      6 C           4.9514   -3.5336    8.9046 C.2     1  LIG1        0.1043
      7 C           4.2133   -2.5205    8.2765 C.2     1  LIG1        0.0305
      8 C           4.6989   -1.7843    7.1107 C.ar    1  LIG1        0.1076
      9 C           5.8048   -0.8653    5.1743 C.ar    1  LIG1       -0.0042
     10 H           6.3340   -0.6179    4.4509 H       1  LIG1        0.0709
     11 C           4.6370   -0.2777    5.5111 C.ar    1  LIG1        0.0354
     12 H           4.2835    0.4331    5.0272 H       1  LIG1        0.0835
     13 C           0.7473   -1.5984    9.6290 C.3     1  LIG1        0.0494
     14 C          -0.5813   -0.9372    9.7846 C.3     1  LIG1       -0.0356
     15 H          -1.0981   -1.0989    8.9792 H       1  LIG1        0.0279
     16 H          -0.4389    0.0200    9.8507 H       1  LIG1        0.0279
     17 C          -1.4085   -1.3775   10.9759 C.3     1  LIG1       -0.0517
     18 H          -0.9217   -1.2065   11.7974 H       1  LIG1        0.0266
     19 H          -1.5879   -2.3288   10.9202 H       1  LIG1        0.0266
     20 C          -2.7218   -0.5977   10.9759 C.3     1  LIG1       -0.0530
     21 H          -2.5170    0.3481   11.0410 H       1  LIG1        0.0265
     22 H          -3.1638   -0.7412   10.1242 H       1  LIG1        0.0265
     23 C          -3.6940   -0.9529   12.0841 C.3     1  LIG1       -0.0533
     24 H          -3.2704   -0.8080   12.9453 H       1  LIG1        0.0265
     25 H          -3.9289   -1.8921   12.0200 H       1  LIG1        0.0265
     26 C          -4.9582   -0.1052   11.9898 C.3     1  LIG1       -0.0559
     27 H          -4.7084    0.8307   12.0455 H       1  LIG1        0.0263
     28 H          -5.3625   -0.2488   11.1202 H       1  LIG1        0.0263
     29 C          -5.9918   -0.3910   13.0537 C.3     1  LIG1       -0.0653
     30 H          -6.7451    0.1915   12.9330 H       1  LIG1        0.0230
     31 H          -5.6081   -0.2425   13.9205 H       1  LIG1        0.0230
     32 H          -6.2787   -1.3046   12.9830 H       1  LIG1        0.0230
@<TRIPOS>BOND
     1    10     9    1
     2    12    11    1
     3     9    11   ar
     4     9     2   ar
     5    11     4   ar
     6     2     8   ar
     7     4     8   ar
     8     8     7    1
     9     7     5    1
    10     7     6    2
    11     1     5    1
    12     1    13    1
    13     3     6    1
    14    15    14    1
    15    13    14    1
    16    14    16    1
    17    14    17    1
    18    22    20    1
    19    19    17    1
    20    20    17    1
    21    20    21    1
    22    20    23    1
    23    17    18    1
    24    28    26    1
    25    26    27    1
    26    26    23    1
    27    26    29    1
    28    25    23    1
    29    23    24    1
    30    30    29    1
    31    32    29    1
    32    29    31    1
