@<TRIPOS>MOLECULE
2,2-difluoro-4-(furan-2-yl)-6-(4-(naphthalen-2-yl)phenyl)-2H-1,3,2-dioxaborinin-1-ium-2-uide
 44 48 0 0 0
SMALL
GASTEIGER

@<TRIPOS>ATOM
      1 O           5.8946    2.8635    3.9062 O.2     1  LIG1        0.0000
      2 O           6.1426    6.0911    5.3480 O.2     1  LIG1        0.0000
      3 O           3.6892    1.9084    4.3356 O.3     1  LIG1        0.0000
      4 F           5.6296    0.7785    4.9174 F       1  LIG1        0.0000
      5 C          -2.4155    3.7093    8.1508 C.ar    1  LIG1        0.0000
      6 H          -1.8961    4.4610    8.3252 H       1  LIG1        0.0000
      7 F           5.1117    1.0294    2.7264 F       1  LIG1        0.0000
      8 C           4.3214    3.9448    5.2919 C.2     1  LIG1        0.0000
      9 H           4.1304    4.6448    5.8733 H       1  LIG1        0.0000
     10 C           3.3986    2.9495    5.0788 C.3     1  LIG1        0.0000
     11 C          -4.4755    2.4460    8.4992 C.ar    1  LIG1        0.0000
     12 C           2.0311    2.9704    5.6128 C.ar    1  LIG1        0.0000
     13 C           0.4062    3.7148    7.2272 C.ar    1  LIG1        0.0000
     14 H           0.1934    4.2536    7.9549 H       1  LIG1        0.0000
     15 C          -1.9217    2.7440    7.3194 C.ar    1  LIG1        0.0000
     16 C          -0.5734    2.8689    6.6957 C.ar    1  LIG1        0.0000
     17 C          -5.7654    2.3283    9.1102 C.ar    1  LIG1        0.0000
     18 H          -6.2821    1.5703    8.9571 H       1  LIG1        0.0000
     19 C           5.5413    3.8977    4.6316 C.2     1  LIG1        0.0000
     20 C          -3.7038    3.6007    8.7609 C.ar    1  LIG1        0.0000
     21 C           1.6804    3.7691    6.6980 C.ar    1  LIG1        0.0000
     22 H           2.3102    4.3451    7.0695 H       1  LIG1        0.0000
     23 C           7.6927    5.1538    4.0335 C.ar    1  LIG1        0.0000
     24 H           8.1424    4.5452    3.4915 H       1  LIG1        0.0000
     25 C          -4.2274    4.6177    9.5786 C.ar    1  LIG1        0.0000
     26 H          -3.7285    5.3856    9.7421 H       1  LIG1        0.0000
     27 C           6.4806    4.9717    4.6281 C.ar    1  LIG1        0.0000
     28 C          -0.2291    2.1182    5.5661 C.ar    1  LIG1        0.0000
     29 H          -0.8734    1.5848    5.1596 H       1  LIG1        0.0000
     30 C          -2.7304    1.6029    7.0625 C.ar    1  LIG1        0.0000
     31 H          -2.4157    0.9418    6.4889 H       1  LIG1        0.0000
     32 C          -3.9616    1.4571    7.6383 C.ar    1  LIG1        0.0000
     33 H          -4.4661    0.6964    7.4596 H       1  LIG1        0.0000
     34 C          -6.2370    3.3199    9.9127 C.ar    1  LIG1        0.0000
     35 H          -7.0703    3.2294   10.3157 H       1  LIG1        0.0000
     36 C           1.0464    2.1517    5.0428 C.ar    1  LIG1        0.0000
     37 H           1.2547    1.6265    4.3045 H       1  LIG1        0.0000
     38 C          -5.4784    4.4773   10.1369 C.ar    1  LIG1        0.0000
     39 H          -5.8239    5.1574   10.6696 H       1  LIG1        0.0000
     40 C           8.1361    6.4433    4.3980 C.ar    1  LIG1        0.0000
     41 H           8.9337    6.8500    4.1480 H       1  LIG1        0.0000
     42 C           7.1740    6.9659    5.1783 C.ar    1  LIG1        0.0000
     43 H           7.2076    7.8162    5.5532 H       1  LIG1        0.0000
     44 B           5.0941    1.6129    3.9611 B       1  LIG1        0.0000
@<TRIPOS>BOND
     1     7    44    1
     2    24    23    1
     3     1    44    1
     4     1    19    1
     5    44     3    1
     6    44     4    1
     7    23    40   ar
     8    23    27   ar
     9    41    40    1
    10    37    36    1
    11     3    10    1
    12    40    42   ar
    13    27    19    1
    14    27     2   ar
    15    19     8    2
    16    36    28   ar
    17    36    12   ar
    18    10     8    1
    19    10    12    1
    20    29    28    1
    21    42     2   ar
    22    42    43    1
    23     8     9    1
    24    28    16   ar
    25    12    21   ar
    26    31    30    1
    27    16    13   ar
    28    16    15    1
    29    21    22    1
    30    21    13   ar
    31    30    15   ar
    32    30    32   ar
    33    13    14    1
    34    15     5   ar
    35    33    32    1
    36    32    11   ar
    37     5     6    1
    38     5    20   ar
    39    11    20   ar
    40    11    17   ar
    41    20    25   ar
    42    18    17    1
    43    17    34   ar
    44    25    26    1
    45    25    38   ar
    46    34    38   ar
    47    34    35    1
    48    38    39    1
