@<TRIPOS>MOLECULE
C27 H25 Br N2 O5 S2
 62 66 0 0 0
SMALL
GASTEIGER

@<TRIPOS>ATOM
      1 BR         -0.2026    4.1989   13.9369 Br      1  LIG1       -0.0496
      2 S          -0.7991    8.3480   10.4125 S.O2    1  LIG1        0.0610
      3 S           0.3779   -0.5409    7.9185 S.O2    1  LIG1        0.0611
      4 N          -1.0622   -0.9659    8.5646 N.3     1  LIG1       -0.1827
      5 N           0.5950    8.8797    9.7497 N.3     1  LIG1       -0.1827
      6 O          -1.8296    8.5238    9.4263 O.2     1  LIG1       -0.1528
      7 O          -1.0206    8.8910   11.7180 O.2     1  LIG1       -0.1528
      8 O           0.5458   -1.0843    6.6077 O.2     1  LIG1       -0.1528
      9 O           1.3828   -0.8288    8.8978 O.2     1  LIG1       -0.1528
     10 O           0.1095    3.6510    5.0098 O.3     1  LIG1       -0.4867
     11 C          -0.2727    4.7806   12.1367 C.ar    1  LIG1        0.0275
     12 C          -0.4290    6.1274   11.9064 C.ar    1  LIG1       -0.0202
     13 H          -0.5031    6.7289   12.6386 H       1  LIG1        0.0648
     14 C          -0.4792    6.6090   10.6113 C.ar    1  LIG1        0.1142
     15 C          -0.3417    5.7602    9.4961 C.ar    1  LIG1        0.0097
     16 C          -0.3253    6.2258    8.1377 C.ar    1  LIG1       -0.0514
     17 H          -0.4250    7.1552    7.9630 H       1  LIG1        0.0624
     18 C          -0.1713    5.3711    7.1040 C.ar    1  LIG1       -0.0499
     19 H          -0.1520    5.7115    6.2165 H       1  LIG1        0.0625
     20 C          -0.0360    3.9611    7.3187 C.ar    1  LIG1        0.0251
     21 C           0.1087    3.0739    6.2372 C.ar    1  LIG1        0.1306
     22 C           0.2321    1.7106    6.4571 C.ar    1  LIG1        0.0076
     23 H           0.3347    1.1146    5.7248 H       1  LIG1        0.0674
     24 C           0.2048    1.2202    7.7560 C.ar    1  LIG1        0.1166
     25 C           0.0754    2.0526    8.8803 C.ar    1  LIG1        0.0099
     26 C           0.0593    1.5875   10.2439 C.ar    1  LIG1       -0.0515
     27 H           0.1262    0.6559   10.4173 H       1  LIG1        0.0624
     28 C          -0.0473    2.4461   11.2750 C.ar    1  LIG1       -0.0523
     29 H          -0.0441    2.1007   12.1612 H       1  LIG1        0.0624
     30 C          -0.1672    3.8601   11.0835 C.ar    1  LIG1       -0.0026
     31 C          -0.1884    4.3641    9.7432 C.ar    1  LIG1        0.0006
     32 C          -0.0532    3.4525    8.6435 C.ar    1  LIG1        0.0030
     33 C           1.7370    8.9682   10.6683 C.3     1  LIG1        0.0086
     34 H           2.5704    8.8479   10.1663 H       1  LIG1        0.0408
     35 H           1.6622    8.2688   11.3501 H       1  LIG1        0.0408
     36 H           1.7412    9.8479   11.1004 H       1  LIG1        0.0408
     37 C           0.5321    9.9407    8.7432 C.3     1  LIG1        0.0086
     38 H           0.5005   10.8129    9.1895 H       1  LIG1        0.0408
     39 H          -0.2727    9.8246    8.1959 H       1  LIG1        0.0408
     40 H           1.3263    9.8940    8.1713 H       1  LIG1        0.0408
     41 C           0.3050    2.8058    3.8761 C.3     1  LIG1        0.1147
     42 H          -0.3957    2.1062    3.8528 H       1  LIG1        0.0748
     43 H           1.1868    2.3601    3.9356 H       1  LIG1        0.0748
     44 C           0.2353    3.6435    2.6250 C.ar    1  LIG1       -0.0104
     45 C           0.1539    5.0234    2.6418 C.ar    1  LIG1       -0.0554
     46 H           0.1308    5.4903    3.4685 H       1  LIG1        0.0621
     47 C           0.1053    5.7293    1.4335 C.ar    1  LIG1       -0.0614
     48 H           0.0373    6.6761    1.4451 H       1  LIG1        0.0618
     49 C           0.1542    5.0705    0.2380 C.ar    1  LIG1       -0.0617
     50 H           0.1215    5.5588   -0.5770 H       1  LIG1        0.0618
     51 C           0.2510    3.6934    0.2148 C.ar    1  LIG1       -0.0614
     52 H           0.2967    3.2332   -0.6145 H       1  LIG1        0.0618
     53 C           0.2832    2.9825    1.4024 C.ar    1  LIG1       -0.0554
     54 H           0.3374    2.0348    1.3830 H       1  LIG1        0.0621
     55 C          -2.2126   -0.8220    7.6525 C.3     1  LIG1        0.0086
     56 H          -2.2106   -1.5571    7.0056 H       1  LIG1        0.0408
     57 H          -2.1477    0.0333    7.1764 H       1  LIG1        0.0408
     58 H          -3.0449   -0.8443    8.1700 H       1  LIG1        0.0408
     59 C          -1.0826   -2.2235    9.3072 C.3     1  LIG1        0.0086
     60 H          -1.9165   -2.2891    9.8183 H       1  LIG1        0.0408
     61 H          -0.3200   -2.2527    9.9218 H       1  LIG1        0.0408
     62 H          -1.0243   -2.9754    8.6798 H       1  LIG1        0.0408
@<TRIPOS>BOND
     1    52    51    1
     2    50    49    1
     3    51    49   ar
     4    51    53   ar
     5    49    47   ar
     6    54    53    1
     7    53    44   ar
     8    47    48    1
     9    47    45   ar
    10    44    45   ar
    11    44    41    1
    12    45    46    1
    13    42    41    1
    14    41    43    1
    15    41    10    1
    16    10    21    1
    17    23    22    1
    18    19    18    1
    19    21    22   ar
    20    21    20   ar
    21    22    24   ar
    22     8     3    2
    23    56    55    1
    24    18    20   ar
    25    18    16   ar
    26    57    55    1
    27    20    32   ar
    28    55    58    1
    29    55     4    1
    30    24     3    1
    31    24    25   ar
    32     3     4    1
    33     3     9    2
    34    17    16    1
    35    16    15   ar
    36    40    37    1
    37    39    37    1
    38     4    59    1
    39    32    25   ar
    40    32    31   ar
    41    62    59    1
    42    37    38    1
    43    37     5    1
    44    25    26   ar
    45    59    60    1
    46    59    61    1
    47     6     2    2
    48    15    31   ar
    49    15    14   ar
    50    31    30   ar
    51     5     2    1
    52     5    33    1
    53    34    33    1
    54    26    27    1
    55    26    28   ar
    56     2    14    1
    57     2     7    2
    58    14    12   ar
    59    33    36    1
    60    33    35    1
    61    30    28   ar
    62    30    11   ar
    63    28    29    1
    64    12    11   ar
    65    12    13    1
    66    11     1    1
