@<TRIPOS>MOLECULE
(<i>E</i>)-4-Nitro-2-[(phenylimino)methyl]phenol
 28 29 0 0 0
SMALL
GASTEIGER

@<TRIPOS>ATOM
      1 C           2.6203    0.6870   -2.5654 C.ar    1  LIG1        0.1270
      2 C           2.0830    1.4016   -3.6189 C.ar    1  LIG1       -0.0280
      3 H           2.0974    1.0503   -4.4799 H       1  LIG1        0.0641
      4 C           1.5348    2.6228   -3.3861 C.ar    1  LIG1       -0.0174
      5 H           1.1789    3.1078   -4.0957 H       1  LIG1        0.0655
      6 C           1.4960    3.1565   -2.1090 C.ar    1  LIG1        0.1256
      7 C           2.0681    2.4327   -1.0396 C.ar    1  LIG1        0.0366
      8 C           2.6232    1.1903   -1.2920 C.ar    1  LIG1       -0.0194
      9 H           2.9987    0.6983   -0.5978 H       1  LIG1        0.0648
     10 C           2.1085    2.9887    0.2880 C.2     1  LIG1        0.0389
     11 H           2.4694    2.4818    0.9791 H       1  LIG1        0.0837
     12 C           1.7506    4.7403    1.8279 C.ar    1  LIG1        0.0639
     13 C           2.4289    4.1764    2.8943 C.ar    1  LIG1       -0.0363
     14 H           2.8549    3.3555    2.7945 H       1  LIG1        0.0639
     15 C           2.4725    4.8318    4.0997 C.ar    1  LIG1       -0.0598
     16 H           2.9329    4.4550    4.8143 H       1  LIG1        0.0618
     17 C           1.8416    6.0372    4.2565 C.ar    1  LIG1       -0.0616
     18 H           1.8664    6.4719    5.0784 H       1  LIG1        0.0618
     19 C           1.1755    6.6018    3.2057 C.ar    1  LIG1       -0.0598
     20 H           0.7476    7.4210    3.3111 H       1  LIG1        0.0618
     21 C           1.1387    5.9596    1.9984 C.ar    1  LIG1       -0.0363
     22 H           0.6941    6.3536    1.2829 H       1  LIG1        0.0639
     23 N           3.2529   -0.5935   -2.8176 N.pl3   1  LIG1        0.0564
     24 N           1.6628    4.1566    0.5438 N.2     1  LIG1       -0.2549
     25 O           3.1992   -1.0587   -3.9470 O.2     1  LIG1       -0.1261
     26 O           3.8128   -1.1594   -1.8929 O.2     1  LIG1       -0.1261
     27 O           0.9378    4.3422   -1.9081 O.3     1  LIG1       -0.5061
     28 H           1.0244    4.5554   -1.1210 H       1  LIG1        0.2922
@<TRIPOS>BOND
     1     3     2    1
     2     5     4    1
     3    25    23    2
     4     2     4   ar
     5     2     1   ar
     6     4     6   ar
     7    23     1    1
     8    23    26    2
     9     1     8   ar
    10     6    27    1
    11     6     7   ar
    12    27    28    1
    13     8     7   ar
    14     8     9    1
    15     7    10    1
    16    10    24    2
    17    10    11    1
    18    24    12    1
    19    22    21    1
    20    12    21   ar
    21    12    13   ar
    22    21    19   ar
    23    14    13    1
    24    13    15   ar
    25    19    20    1
    26    19    17   ar
    27    15    17   ar
    28    15    16    1
    29    17    18    1
