@<TRIPOS>MOLECULE
<i>N</i>-(4-Chlorophenylsulfonyl)-4-iodobenzamide
 29 30 0 0 0
SMALL
GASTEIGER

@<TRIPOS>ATOM
      1 C          11.8004    4.3426    8.9221 C.ar    1  LIG1        0.1087
      2 C          12.2346    4.1738    7.6308 C.ar    1  LIG1       -0.0337
      3 H          11.8736    3.4974    7.1038 H       1  LIG1        0.0638
      4 C          13.2045    5.0056    7.1134 C.ar    1  LIG1       -0.0415
      5 H          13.5136    4.8891    6.2442 H       1  LIG1        0.0633
      6 C          13.7122    6.0169    7.9122 C.ar    1  LIG1        0.0411
      7 C          13.2956    6.1937    9.2130 C.ar    1  LIG1       -0.0415
      8 H          13.6587    6.8688    9.7388 H       1  LIG1        0.0633
      9 C          12.3187    5.3405    9.7293 C.ar    1  LIG1       -0.0337
     10 H          12.0208    5.4423   10.6045 H       1  LIG1        0.0638
     11 C          12.1882    1.1841    9.6792 C.2     1  LIG1        0.2630
     12 C          12.9009    0.1460   10.4912 C.ar    1  LIG1        0.0383
     13 C          13.9841   -0.4916    9.8986 C.ar    1  LIG1       -0.0486
     14 H          14.2500   -0.2411    9.0425 H       1  LIG1        0.0625
     15 C          14.6715   -1.4841   10.5532 C.ar    1  LIG1       -0.0479
     16 H          15.4077   -1.8927   10.1573 H       1  LIG1        0.0628
     17 C          14.2509   -1.8645   11.8051 C.ar    1  LIG1        0.0134
     18 C          13.1816   -1.2591   12.4144 C.ar    1  LIG1       -0.0479
     19 H          12.9091   -1.5297   13.2609 H       1  LIG1        0.0628
     20 C          12.5148   -0.2398   11.7574 C.ar    1  LIG1       -0.0486
     21 H          11.8006    0.1862   12.1735 H       1  LIG1        0.0625
     22 O           9.8746    3.9622   10.6307 O.2     1  LIG1       -0.1499
     23 O           9.8168    2.7325    8.5000 O.2     1  LIG1       -0.1499
     24 O          12.3122    1.2470    8.4762 O.2     1  LIG1       -0.2686
     25 S          10.5522    3.2794    9.5748 S.O2    1  LIG1        0.0746
     26 CL         14.8817    7.0966    7.2487 Cl      1  LIG1       -0.0835
     27 I          15.2524   -3.4265   12.7993 I       1  LIG1       -0.0438
     28 N          11.3650    2.0588   10.3541 N.am    1  LIG1       -0.1815
     29 H          11.4530    2.2637   11.1362 H       1  LIG1        0.1769
@<TRIPOS>BOND
     1     5     4    1
     2     3     2    1
     3     4     2   ar
     4     4     6   ar
     5    26     6    1
     6     2     1   ar
     7     6     7   ar
     8    24    11    2
     9    23    25    2
    10     1    25    1
    11     1     9   ar
    12    14    13    1
    13     7     9   ar
    14     7     8    1
    15    25    28    1
    16    25    22    2
    17    11    28   am
    18    11    12    1
    19     9    10    1
    20    13    12   ar
    21    13    15   ar
    22    16    15    1
    23    28    29    1
    24    12    20   ar
    25    15    17   ar
    26    20    21    1
    27    20    18   ar
    28    17    18   ar
    29    17    27    1
    30    18    19    1
