@<TRIPOS>MOLECULE
1545975.cif
 27 28 0 0 0
SMALL
GASTEIGER

@<TRIPOS>ATOM
      1 P           2.0300    5.7185    7.5213 P.3     1  LIG1        1.0000
      2 B           2.8847    5.6123    9.1886 B       1  LIG1        0.0000
      3 H           3.9582    5.4870    8.9181 H       1  LIG1        0.0000
      4 H           2.4165    4.7193    9.6697 H       1  LIG1        0.0000
      5 H           2.7059    6.5144    9.6842 H       1  LIG1        0.0000
      6 O           2.6965    6.7693    6.5498 O.3     1  LIG1        0.0000
      7 O           0.5041    6.1113    7.6301 O.3     1  LIG1        0.0000
      8 O           2.0332    4.3833    6.6594 O.3     1  LIG1        0.0000
      9 C           3.4277    8.0092    3.4836 C.2     1  LIG1        0.0000
     10 H           3.4233    7.1579    3.0064 H       1  LIG1        0.0000
     11 H           3.9016    8.7160    3.1221 H       1  LIG1        0.0000
     12 C           2.7978    8.1627    4.6241 C.2     1  LIG1        0.0000
     13 H           2.8003    9.0885    5.1023 H       1  LIG1        0.0000
     14 C           1.9898    7.0812    5.2734 C.3     1  LIG1        0.0000
     15 H           2.0011    6.3225    4.7351 H       1  LIG1        0.0000
     16 C           0.5771    7.5158    5.6142 C.3     1  LIG1        0.0000
     17 H           0.0881    7.7224    4.7554 H       1  LIG1        0.0000
     18 H           0.5789    8.2982    6.1430 H       1  LIG1        0.0000
     19 C          -0.2221    6.4737    6.4027 C.3     1  LIG1        0.0000
     20 H          -1.0698    6.8983    6.6763 H       1  LIG1        0.0000
     21 C          -0.6293    5.2713    5.6109 C.2     1  LIG1        0.0000
     22 H          -1.2900    5.4757    4.9722 H       1  LIG1        0.0000
     23 C          -0.2020    4.0238    5.7322 C.2     1  LIG1        0.0000
     24 H          -0.5601    3.4096    5.1312 H       1  LIG1        0.0000
     25 C           0.8577    3.5225    6.6717 C.3     1  LIG1        0.0000
     26 H           1.2082    2.6193    6.4031 H       1  LIG1        0.0000
     27 H           0.5538    3.4435    7.6100 H       1  LIG1        0.0000
@<TRIPOS>BOND
     1    10     9    1
     2    11     9    1
     3     9    12    2
     4    12    13    1
     5    12    14    1
     6    15    14    1
     7    17    16    1
     8    22    21    1
     9    24    23    1
    10    14    16    1
    11    14     6    1
    12    21    23    2
    13    21    19    1
    14    16    18    1
    15    16    19    1
    16    23    25    1
    17    19    20    1
    18    19     7    1
    19    26    25    1
    20     6     1    1
    21     8    25    1
    22     8     1    1
    23    25    27    1
    24     1     7    1
    25     1     2    1
    26     3     2    1
    27     2     4    1
    28     2     5    1
