@<TRIPOS>MOLECULE
1545875.cif
 32 33 0 0 0
SMALL
GASTEIGER

@<TRIPOS>ATOM
      1 S           3.0442    7.9397    8.1743 S.3     1  LIG1       -0.0450
      2 S           1.4720    8.7804    9.2007 S.3     1  LIG1       -0.0075
      3 S          -0.0592    7.4110    9.1802 S.3     1  LIG1       -0.0075
      4 S          -1.0273    7.6297    7.3958 S.3     1  LIG1       -0.0450
      5 C           3.8977    6.9955    9.4121 C.ar    1  LIG1        0.0195
      6 C           3.4093    5.7618    9.8159 C.ar    1  LIG1       -0.0472
      7 C           4.1052    5.0147   10.7434 C.ar    1  LIG1       -0.0578
      8 C           5.3081    5.4657   11.2817 C.ar    1  LIG1       -0.0504
      9 C           5.7878    6.6950   10.8543 C.ar    1  LIG1       -0.0578
     10 C           5.0951    7.4666    9.9372 C.ar    1  LIG1       -0.0472
     11 C           6.0597    4.6432   12.2876 C.3     1  LIG1       -0.0397
     12 C          -0.0939    6.5683    6.2962 C.ar    1  LIG1        0.0195
     13 C           0.2990    5.2913    6.6686 C.ar    1  LIG1       -0.0472
     14 C           1.0281    4.5196    5.7896 C.ar    1  LIG1       -0.0578
     15 C           1.3416    4.9706    4.5095 C.ar    1  LIG1       -0.0504
     16 C           0.9103    6.2422    4.1399 C.ar    1  LIG1       -0.0578
     17 C           0.2000    7.0487    5.0287 C.ar    1  LIG1       -0.0472
     18 C           2.1219    4.1158    3.5529 C.3     1  LIG1       -0.0397
     19 H           2.5852    5.4033    9.4742 H       1  LIG1        0.0629
     20 H           3.8156    4.1917   10.9756 H       1  LIG1        0.0621
     21 H           6.5389    7.0310   11.2605 H       1  LIG1        0.0621
     22 H           5.4201    8.2793    9.6994 H       1  LIG1        0.0629
     23 H           6.9767    4.7852   12.3012 H       1  LIG1        0.0278
     24 H           5.9786    3.7572   12.0965 H       1  LIG1        0.0278
     25 H           5.7458    4.6751   13.1202 H       1  LIG1        0.0278
     26 H           0.0814    4.9321    7.5292 H       1  LIG1        0.0629
     27 H           1.2741    3.6287    6.0585 H       1  LIG1        0.0621
     28 H           1.0794    6.5414    3.2400 H       1  LIG1        0.0621
     29 H          -0.0436    7.9550    4.8113 H       1  LIG1        0.0629
     30 H           2.0856    3.1881    3.6853 H       1  LIG1        0.0278
     31 H           1.8588    4.3508    2.7128 H       1  LIG1        0.0278
     32 H           3.0996    4.3324    3.5999 H       1  LIG1        0.0278
@<TRIPOS>BOND
     1    31    18    1
     2    28    16    1
     3    18    32    1
     4    18    30    1
     5    18    15    1
     6    16    15   ar
     7    16    17   ar
     8    15    14   ar
     9    29    17    1
    10    17    12   ar
    11    14    27    1
    12    14    13   ar
    13    12    13   ar
    14    12     4    1
    15    13    26    1
    16     4     3    1
    17     1     2    1
    18     1     5    1
    19     3     2    1
    20     5     6   ar
    21     5    10   ar
    22    19     6    1
    23    22    10    1
    24     6     7   ar
    25    10     9   ar
    26     7    20    1
    27     7     8   ar
    28     9    21    1
    29     9     8   ar
    30     8    11    1
    31    24    11    1
    32    11    23    1
    33    11    25    1
