@<TRIPOS>MOLECULE
3,5-Dichloro-<i>N</i>-(4-methylphenyl)benzenesulfonamide
 30 31 0 0 0
SMALL
GASTEIGER

@<TRIPOS>ATOM
      1 CL          2.8524    3.5359   12.5853 Cl      1  LIG1       -0.0834
      2 CL          5.9107    7.7847   13.9061 Cl      1  LIG1       -0.0834
      3 S           7.2432    4.6760    9.6592 S.O2    1  LIG1        0.0724
      4 O           8.4097    5.4937    9.7901 O.2     1  LIG1       -0.1500
      5 O           7.3545    3.2398    9.6038 O.2     1  LIG1       -0.1500
      6 C           4.4664    5.6446   13.1213 C.ar    1  LIG1       -0.0249
      7 H           3.8786    5.8511   13.8395 H       1  LIG1        0.0647
      8 C           5.5703    6.4197   12.8761 C.ar    1  LIG1        0.0442
      9 C           6.4528    6.1505   11.8210 C.ar    1  LIG1       -0.0166
     10 H           7.2168    6.6917   11.6627 H       1  LIG1        0.0652
     11 C           6.1593    5.0606   11.0235 C.ar    1  LIG1        0.1113
     12 N           6.4701    5.0840    8.2818 N.pl3   1  LIG1       -0.2163
     13 C           6.2000    6.4678    7.9959 C.ar    1  LIG1        0.0481
     14 C           4.9363    6.9881    8.2253 C.ar    1  LIG1       -0.0391
     15 H           4.2535    6.4439    8.6008 H       1  LIG1        0.0636
     16 C           4.6797    8.3199    7.9007 C.ar    1  LIG1       -0.0571
     17 H           3.8124    8.6794    8.0480 H       1  LIG1        0.0621
     18 C           5.6714    9.1288    7.3643 C.ar    1  LIG1       -0.0503
     19 C           5.3544   10.5647    6.9709 C.3     1  LIG1       -0.0397
     20 H           4.8641   10.5696    6.1215 H       1  LIG1        0.0278
     21 H           6.1896   11.0672    6.8677 H       1  LIG1        0.0278
     22 H           4.8057   10.9815    7.6669 H       1  LIG1        0.0278
     23 C           4.2258    4.5547   12.3009 C.ar    1  LIG1        0.0442
     24 C           5.0560    4.2503   11.2405 C.ar    1  LIG1       -0.0166
     25 H           4.8759    3.5077   10.6756 H       1  LIG1        0.0652
     26 C           6.9450    8.5839    7.1508 C.ar    1  LIG1       -0.0571
     27 H           7.6332    9.1283    6.7884 H       1  LIG1        0.0621
     28 C           7.2139    7.2547    7.4649 C.ar    1  LIG1       -0.0391
     29 H           8.0793    6.8914    7.3191 H       1  LIG1        0.0636
     30 H           5.8219    4.5261    8.1159 H       1  LIG1        0.1737
@<TRIPOS>BOND
     1    20    19    1
     2    27    26    1
     3    21    19    1
     4    19    18    1
     5    19    22    1
     6    26    18   ar
     7    26    28   ar
     8    29    28    1
     9    18    16   ar
    10    28    13   ar
    11    16    17    1
    12    16    14   ar
    13    13    14   ar
    14    13    12    1
    15    30    12    1
    16    14    15    1
    17    12     3    1
    18     5     3    2
    19     3     4    2
    20     3    11    1
    21    25    24    1
    22    11    24   ar
    23    11     9   ar
    24    24    23   ar
    25    10     9    1
    26     9     8   ar
    27    23     1    1
    28    23     6   ar
    29     8     6   ar
    30     8     2    1
    31     6     7    1
