@<TRIPOS>MOLECULE
?
 61 65 0 0 0
SMALL
GASTEIGER

@<TRIPOS>ATOM
      1 O          10.2735    3.5160   -2.5193 O.3     1  LIG1       -0.4951
      2 C          10.6833    2.7561   -3.6353 C.3     1  LIG1        0.0788
      3 H          11.2351    3.2975   -4.2045 H       1  LIG1        0.0660
      4 H           9.9116    2.4621   -4.1239 H       1  LIG1        0.0660
      5 H          11.1836    1.9930   -3.3364 H       1  LIG1        0.0660
      6 C           9.5504    2.8726   -1.5456 C.ar    1  LIG1        0.1204
      7 C           9.1123    1.5753   -1.6294 C.ar    1  LIG1       -0.0165
      8 H           9.3220    1.0692   -2.3811 H       1  LIG1        0.0657
      9 C           8.3567    1.0017   -0.6040 C.ar    1  LIG1       -0.0405
     10 C           8.0393    1.7568    0.5293 C.ar    1  LIG1       -0.0406
     11 C           8.5180    3.0710    0.5799 C.ar    1  LIG1       -0.0546
     12 H           8.3205    3.5891    1.3266 H       1  LIG1        0.0622
     13 C           9.2642    3.6261   -0.4247 C.ar    1  LIG1       -0.0197
     14 H           9.5749    4.5001   -0.3528 H       1  LIG1        0.0654
     15 C           7.9109   -0.4386   -0.7446 C.3     1  LIG1       -0.0270
     16 H           8.6237   -0.9503   -1.1588 H       1  LIG1        0.0313
     17 H           7.1411   -0.4748   -1.3332 H       1  LIG1        0.0313
     18 C           7.5500   -1.0796    0.5802 C.3     1  LIG1       -0.0454
     19 H           7.1262   -1.9376    0.4202 H       1  LIG1        0.0271
     20 H           8.3562   -1.2347    1.0967 H       1  LIG1        0.0271
     21 C           6.6087   -0.1880    1.3671 C.3     1  LIG1       -0.0305
     22 H           5.8291    0.0008    0.8034 H       1  LIG1        0.0310
     23 C           7.2864    1.1503    1.7007 C.3     1  LIG1       -0.0125
     24 H           7.9703    0.9383    2.3705 H       1  LIG1        0.0352
     25 C           6.1083   -0.7800    2.6739 C.3     1  LIG1       -0.0308
     26 H           6.8987   -0.8306    3.2518 H       1  LIG1        0.0309
     27 C           5.4966   -2.1569    2.7214 C.3     1  LIG1       -0.0480
     28 H           6.1860   -2.8389    2.6876 H       1  LIG1        0.0269
     29 H           4.8892   -2.2878    1.9767 H       1  LIG1        0.0269
     30 C           4.7402   -2.2171    4.0544 C.3     1  LIG1       -0.0359
     31 H           5.1412   -2.8774    4.6406 H       1  LIG1        0.0280
     32 H           3.8121   -2.4573    3.9059 H       1  LIG1        0.0280
     33 C           4.8386   -0.7913    4.6911 C.3     1  LIG1        0.0351
     34 C           3.5750   -0.4386    5.5132 C.3     1  LIG1       -0.0481
     35 H           2.7940   -0.5519    4.9656 H       1  LIG1        0.0244
     36 H           3.6292    0.4731    5.8086 H       1  LIG1        0.0244
     37 H           3.5164   -1.0186    6.2764 H       1  LIG1        0.0244
     38 C           5.1131    0.1004    3.4339 C.3     1  LIG1       -0.0127
     39 C           3.8130    0.2715    2.6316 C.3     1  LIG1       -0.0579
     40 H           3.2121    0.8443    3.1144 H       1  LIG1        0.0236
     41 H           3.4018   -0.5856    2.5013 H       1  LIG1        0.0236
     42 H           4.0126    0.6643    1.7785 H       1  LIG1        0.0236
     43 C           5.7295    1.4797    3.6842 C.3     1  LIG1       -0.0454
     44 H           6.4343    1.4010    4.3459 H       1  LIG1        0.0271
     45 H           5.0503    2.0741    4.0394 H       1  LIG1        0.0271
     46 C           6.3069    2.0805    2.4002 C.3     1  LIG1       -0.0454
     47 H           5.5798    2.2878    1.7931 H       1  LIG1        0.0271
     48 H           6.7589    2.9112    2.6149 H       1  LIG1        0.0271
     49 C           5.9975   -0.7310    5.6050 C.1     1  LIG1       -0.0900
     50 C           6.8703   -0.6579    6.4015 C.1     1  LIG1       -0.0657
     51 C           8.0458   -0.6057    7.2192 C.ar    1  LIG1        0.0249
     52 C           9.1231    0.1486    6.8323 C.ar    1  LIG1       -0.0463
     53 H           9.0600    0.6868    6.0769 H       1  LIG1        0.0630
     54 C          10.2953    0.1181    7.5490 C.ar    1  LIG1       -0.0606
     55 H          11.0289    0.6121    7.2595 H       1  LIG1        0.0618
     56 C          10.3866   -0.6314    8.6786 C.ar    1  LIG1       -0.0617
     57 H          11.1809   -0.6491    9.1609 H       1  LIG1        0.0618
     58 C           9.3160   -1.3568    9.1062 C.ar    1  LIG1       -0.0606
     59 H           9.3787   -1.8548    9.8890 H       1  LIG1        0.0618
     60 C           8.1460   -1.3584    8.3882 C.ar    1  LIG1       -0.0463
     61 H           7.4214   -1.8621    8.6813 H       1  LIG1        0.0630
@<TRIPOS>BOND
     1     3     2    1
     2     4     2    1
     3     2     5    1
     4     2     1    1
     5     1     6    1
     6     8     7    1
     7     7     6   ar
     8     7     9   ar
     9     6    13   ar
    10    17    15    1
    11    16    15    1
    12    15     9    1
    13    15    18    1
    14     9    10   ar
    15    13    14    1
    16    13    11   ar
    17    19    18    1
    18    10    11   ar
    19    10    23    1
    20    11    12    1
    21    18    20    1
    22    18    21    1
    23    22    21    1
    24    21    23    1
    25    21    25    1
    26    23    24    1
    27    23    46    1
    28    42    39    1
    29    47    46    1
    30    29    27    1
    31    46    48    1
    32    46    43    1
    33    41    39    1
    34    39    40    1
    35    39    38    1
    36    25    27    1
    37    25    26    1
    38    25    38    1
    39    28    27    1
    40    27    30    1
    41    38    43    1
    42    38    33    1
    43    43    45    1
    44    43    44    1
    45    32    30    1
    46    30    31    1
    47    30    33    1
    48    33    34    1
    49    33    49    1
    50    35    34    1
    51    34    36    1
    52    34    37    1
    53    49    50    3
    54    53    52    1
    55    50    51    1
    56    52    51   ar
    57    52    54   ar
    58    51    60   ar
    59    55    54    1
    60    54    56   ar
    61    60    61    1
    62    60    58   ar
    63    56    58   ar
    64    56    57    1
    65    58    59    1
