@<TRIPOS>MOLECULE
C14 H14 N2 O3 S2
 35 38 0 0 0
SMALL
GASTEIGER

@<TRIPOS>ATOM
      1 S           4.4409    2.4482    5.4095 S.2     1  LIG1       -0.0180
      2 S           4.7372    1.0570    9.6083 S.3     1  LIG1       -0.1363
      3 O           0.2233    2.8269    1.8856 O.3     1  LIG1       -0.4526
      4 O          -1.1298    1.1315    1.0871 O.3     1  LIG1       -0.4526
      5 O           1.9249   -1.6634    6.7053 O.2     1  LIG1       -0.2731
      6 N           3.1396    1.4986    7.5838 N.am    1  LIG1       -0.2882
      7 N           2.9998    0.1803    5.8126 N.am    1  LIG1       -0.2474
      8 C           2.8631    3.1186    9.4048 C.3     1  LIG1       -0.0370
      9 H           2.4220    3.7788    8.8301 H       1  LIG1        0.0256
     10 H           3.3512    3.5804   10.1184 H       1  LIG1        0.0256
     11 H           2.1895    2.5267    9.8002 H       1  LIG1        0.0256
     12 C           3.8346    2.2975    8.5773 C.3     1  LIG1        0.0694
     13 H           4.4901    2.9029    8.1264 H       1  LIG1        0.0613
     14 C           3.5246    1.3781    6.2831 C.2     1  LIG1        0.1436
     15 C           3.1426   -0.3331    4.4475 C.3     1  LIG1        0.0466
     16 H           3.2334   -1.3179    4.4824 H       1  LIG1        0.0518
     17 H           3.9718    0.0336    4.0514 H       1  LIG1        0.0518
     18 C           1.9722    0.0211    3.5538 C.ar    1  LIG1       -0.0260
     19 C           1.7324    1.3692    3.2045 C.ar    1  LIG1       -0.0114
     20 H           2.2904    2.0716    3.5170 H       1  LIG1        0.0658
     21 C           0.6513    1.6154    2.3895 C.ar    1  LIG1        0.1665
     22 C          -1.0715    2.5449    1.3161 C.3     1  LIG1        0.2332
     23 H          -1.7885    2.8219    1.9387 H       1  LIG1        0.1166
     24 H          -1.1866    3.0361    0.4639 H       1  LIG1        0.1166
     25 C          -0.1573    0.5975    1.9068 C.ar    1  LIG1        0.1662
     26 C           2.4366   -0.5741    6.8312 C.2     1  LIG1        0.2427
     27 C           2.6431    0.2238    8.1052 C.3     1  LIG1        0.1118
     28 H           1.7878    0.3398    8.6107 H       1  LIG1        0.0605
     29 C           3.7597   -0.3600    8.9989 C.3     1  LIG1        0.0226
     30 H           4.3328   -0.9754    8.4775 H       1  LIG1        0.0400
     31 H           3.3674   -0.8608    9.7579 H       1  LIG1        0.0400
     32 C           1.1496   -0.9891    3.0705 C.ar    1  LIG1       -0.0534
     33 H           1.3247   -1.8877    3.3258 H       1  LIG1        0.0622
     34 C           0.0634   -0.7209    2.2138 C.ar    1  LIG1       -0.0158
     35 H          -0.4855   -1.4147    1.8682 H       1  LIG1        0.0655
@<TRIPOS>BOND
     1    24    22    1
     2     4    22    1
     3     4    25    1
     4    22     3    1
     5    22    23    1
     6    35    34    1
     7     3    21    1
     8    25    34   ar
     9    25    21   ar
    10    34    32   ar
    11    21    19   ar
    12    32    33    1
    13    32    18   ar
    14    19    20    1
    15    19    18   ar
    16    18    15    1
    17    17    15    1
    18    15    16    1
    19    15     7    1
    20     1    14    2
    21     7    14    1
    22     7    26   am
    23    14     6    1
    24     5    26    2
    25    26    27    1
    26     6    27    1
    27     6    12    1
    28    27    28    1
    29    27    29    1
    30    13    12    1
    31    30    29    1
    32    12     8    1
    33    12     2    1
    34     9     8    1
    35    29     2    1
    36    29    31    1
    37     8    11    1
    38     8    10    1
