@<TRIPOS>MOLECULE
?
 39 38 0 0 0
SMALL
GASTEIGER

@<TRIPOS>ATOM
      1 O           0.9415    3.0154    1.5935 O.3     1  LIG1       -0.5064
      2 H           0.6994    2.3893    2.0978 H       1  LIG1        0.2921
      3 O          -0.7945    6.0251   -1.6025 O.3     1  LIG1       -0.5064
      4 H          -1.5250    6.3247   -1.8896 H       1  LIG1        0.2921
      5 C          -0.1508    3.5052    0.9129 C.ar    1  LIG1        0.1232
      6 C           0.0758    4.5155   -0.0274 C.ar    1  LIG1        0.0323
      7 C          -1.0339    5.0191   -0.7040 C.ar    1  LIG1        0.1232
      8 C          -2.3182    4.5205   -0.4934 C.ar    1  LIG1       -0.0197
      9 H          -3.0569    4.8631   -0.9825 H       1  LIG1        0.0654
     10 C          -1.4297    3.0092    1.1543 C.ar    1  LIG1       -0.0197
     11 H          -1.5634    2.3274    1.8025 H       1  LIG1        0.0654
     12 C          -4.0491   -0.3356    3.6295 C.ar    2  LIG2       -0.0179
     13 C          -2.4967    3.5109    0.4485 C.ar    1  LIG1       -0.0548
     14 H          -3.3674    3.1644    0.6051 H       1  LIG1        0.0620
     15 C           1.4509    5.0585   -0.3080 C.3     1  LIG1       -0.0328
     16 H           1.5330    5.2609   -1.2634 H       1  LIG1        0.0280
     17 H           2.1235    4.3910   -0.0575 H       1  LIG1        0.0280
     18 H           1.5921    5.8773    0.2133 H       1  LIG1        0.0280
     19 C          -3.9232   -1.7121    3.5550 C.ar    2  LIG2       -0.0540
     20 H          -4.1992   -2.2429    4.2930 H       2  LIG2        0.0624
     21 C          -3.6268    0.3845    2.5311 C.ar    2  LIG2       -0.0540
     22 H          -3.7010    1.3317    2.5412 H       2  LIG2        0.0624
     23 C          -2.9878   -1.5950    1.3506 C.ar    2  LIG2       -0.0617
     24 H          -2.6315   -2.0141    0.5754 H       2  LIG2        0.0618
     25 C          -3.1020   -0.2352    1.4234 C.ar    2  LIG2       -0.0612
     26 H          -2.8121    0.2948    0.6897 H       2  LIG2        0.0618
     27 C          -3.4018   -2.3400    2.4278 C.ar    2  LIG2       -0.0612
     28 H          -3.3319   -3.2881    2.4025 H       2  LIG2        0.0618
     29 N           0.2303    1.0019    3.3800 N.2     3  LIG3       -0.2755
     30 C           0.3476   -0.2814    3.0196 C.2     3  LIG3        0.0541
     31 C          -0.2928    1.3002    4.5842 C.3     3  LIG3        0.1132
     32 C           0.9381   -0.5772    1.6696 C.3     3  LIG3       -0.0210
     33 H           1.1751    0.2639    1.2262 H       3  LIG3        0.0293
     34 H           0.2822   -1.0596    1.1255 H       3  LIG3        0.0293
     35 H           1.7411   -1.1276    1.7788 H       3  LIG3        0.0293
     36 C          -0.4016    2.7490    4.9598 C.3     3  LIG3       -0.0351
     37 H           0.2875    2.9686    5.6207 H       3  LIG3        0.0254
     38 H          -1.2877    2.9211    5.3414 H       3  LIG3        0.0254
     39 H          -0.2765    3.3025    4.1618 H       3  LIG3        0.0254
@<TRIPOS>BOND
     1     4     3    1
     2     3     7    1
     3    16    15    1
     4     9     8    1
     5     7     8   ar
     6     7     6   ar
     7     8    13   ar
     8    15    17    1
     9    15     6    1
    10    15    18    1
    11     6     5   ar
    12    13    14    1
    13    13    10   ar
    14    24    23    1
    15    26    25    1
    16     5    10   ar
    17     5     1    1
    18    34    32    1
    19    10    11    1
    20    33    32    1
    21    23    25   ar
    22    23    27   ar
    23    25    21   ar
    24     1     2    1
    25    32    35    1
    26    32    30    1
    27    28    27    1
    28    27    19   ar
    29    21    22    1
    30    21    12   ar
    31    30    29    2
    32    29    31    1
    33    19    12   ar
    34    19    20    1
    35    39    36    1
    36    31    36    1
    37    36    38    1
    38    36    37    1
