@<TRIPOS>MOLECULE
2,7-Dibromo-10'<i>H</i>-spiro[fluorene-9,9'-phenanthren]-10'-one
 86 96 0 0 0
SMALL
GASTEIGER

@<TRIPOS>ATOM
      1 BR          9.7489    4.0485   13.6180 Br      1  LIG1       -0.0503
      2 BR         20.0564    4.6549   15.7536 Br      1  LIG1       -0.0503
      3 O          15.0476    1.5440   13.9289 O.2     1  LIG1       -0.2904
      4 C          14.7648    3.3152   15.5083 C.3     1  LIG1        0.1099
      5 C          15.0285    1.8498   15.1082 C.2     1  LIG1        0.1828
      6 C          15.3237    0.8714   16.1716 C.ar    1  LIG1        0.0267
      7 C          15.7867   -0.4005   15.7854 C.ar    1  LIG1       -0.0506
      8 H          15.8930   -0.6038   14.8642 H       1  LIG1        0.0625
      9 C          16.0883   -1.3539   16.7374 C.ar    1  LIG1       -0.0611
     10 H          16.4043   -2.2110   16.4757 H       1  LIG1        0.0618
     11 C          15.9250   -1.0462   18.0770 C.ar    1  LIG1       -0.0611
     12 H          16.1379   -1.6973   18.7363 H       1  LIG1        0.0618
     13 C          15.4566    0.1971   18.4736 C.ar    1  LIG1       -0.0534
     14 H          15.3475    0.3826   19.3980 H       1  LIG1        0.0624
     15 C          15.1402    1.1853   17.5307 C.ar    1  LIG1       -0.0071
     16 C          14.5994    2.5054   17.9232 C.ar    1  LIG1       -0.0125
     17 C          14.2348    2.7729   19.2583 C.ar    1  LIG1       -0.0537
     18 H          14.3455    2.0969   19.9158 H       1  LIG1        0.0624
     19 C          13.7221    3.9966   19.6241 C.ar    1  LIG1       -0.0612
     20 H          13.4798    4.1527   20.5296 H       1  LIG1        0.0618
     21 C          13.5547    5.0009   18.6910 C.ar    1  LIG1       -0.0614
     22 H          13.2089    5.8465   18.9509 H       1  LIG1        0.0618
     23 C          13.8996    4.7583   17.3668 C.ar    1  LIG1       -0.0564
     24 H          13.7859    5.4433   16.7182 H       1  LIG1        0.0621
     25 C          14.4109    3.5177   16.9813 C.ar    1  LIG1       -0.0173
     26 C          13.7335    3.9369   14.5808 C.ar    1  LIG1       -0.0163
     27 C          12.3863    3.6604   14.5354 C.ar    1  LIG1       -0.0424
     28 H          11.9999    3.0066   15.1067 H       1  LIG1        0.0632
     29 C          11.6101    4.3730   13.6238 C.ar    1  LIG1        0.0182
     30 C          12.1673    5.3167   12.7633 C.ar    1  LIG1       -0.0472
     31 H          11.6193    5.7662   12.1288 H       1  LIG1        0.0629
     32 C          13.5229    5.5976   12.8348 C.ar    1  LIG1       -0.0527
     33 H          13.9099    6.2496   12.2627 H       1  LIG1        0.0624
     34 C          14.3108    4.9109   13.7577 C.ar    1  LIG1       -0.0127
     35 C          15.7343    5.0125   14.0835 C.ar    1  LIG1       -0.0127
     36 C          16.7426    5.8197   13.5635 C.ar    1  LIG1       -0.0527
     37 H          16.5519    6.4458   12.8739 H       1  LIG1        0.0624
     38 C          18.0293    5.6940   14.0661 C.ar    1  LIG1       -0.0472
     39 H          18.7296    6.2344   13.7201 H       1  LIG1        0.0629
     40 C          18.2898    4.7771   15.0754 C.ar    1  LIG1        0.0182
     41 C          17.3037    3.9592   15.6202 C.ar    1  LIG1       -0.0424
     42 H          17.4998    3.3340   16.3090 H       1  LIG1        0.0632
     43 C          16.0233    4.1001   15.1118 C.ar    1  LIG1       -0.0163
     44 BR          1.5115    0.5442   14.6970 Br      2  LIG2       -0.0503
     45 BR         12.0520   -0.0848   15.5320 Br      2  LIG2       -0.0503
     46 O           7.1719    2.9653   14.5137 O.2     2  LIG2       -0.2904
     47 C           6.7702    1.2237   16.0958 C.3     2  LIG2        0.1099
     48 C           6.7743    2.6927   15.6303 C.2     2  LIG2        0.1828
     49 C           6.1886    3.7095   16.5267 C.ar    2  LIG2        0.0267
     50 C           5.9717    4.9956   16.0074 C.ar    2  LIG2       -0.0506
     51 H           6.2210    5.1954   15.1118 H       2  LIG2        0.0625
     52 C           5.3956    5.9731   16.7987 C.ar    2  LIG2       -0.0611
     53 H           5.2490    6.8445   16.4504 H       2  LIG2        0.0618
     54 C           5.0347    5.6725   18.1018 C.ar    2  LIG2       -0.0611
     55 H           4.6384    6.3424   18.6453 H       2  LIG2        0.0618
     56 C           5.2463    4.4060   18.6203 C.ar    2  LIG2       -0.0534
     57 H           4.9819    4.2169   19.5117 H       2  LIG2        0.0624
     58 C           5.8441    3.3991   17.8517 C.ar    2  LIG2       -0.0071
     59 C           6.1670    2.0666   18.4241 C.ar    2  LIG2       -0.0125
     60 C           6.0588    1.8195   19.8047 C.ar    2  LIG2       -0.0537
     61 H           5.7527    2.5134   20.3780 H       2  LIG2        0.0624
     62 C           6.3865    0.5913   20.3454 C.ar    2  LIG2       -0.0612
     63 H           6.2998    0.4433   21.2797 H       2  LIG2        0.0618
     64 C           6.8430   -0.4246   19.5210 C.ar    2  LIG2       -0.0614
     65 H           7.0619   -1.2728   19.8880 H       2  LIG2        0.0618
     66 C           6.9795   -0.1989   18.1604 C.ar    2  LIG2       -0.0564
     67 H           7.3049   -0.8946   17.5997 H       2  LIG2        0.0621
     68 C           6.6446    1.0355   17.6024 C.ar    2  LIG2       -0.0173
     69 C           5.5952    0.5940   15.3179 C.ar    2  LIG2       -0.0163
     70 C           4.2465    0.8821   15.4290 C.ar    2  LIG2       -0.0424
     71 H           3.9240    1.5100   16.0665 H       2  LIG2        0.0632
     72 C           3.3775    0.2087   14.5611 C.ar    2  LIG2        0.0182
     73 C           3.8256   -0.6948   13.6084 C.ar    2  LIG2       -0.0472
     74 H           3.2079   -1.1256   13.0280 H       2  LIG2        0.0629
     75 C           5.1870   -0.9650   13.5112 C.ar    2  LIG2       -0.0527
     76 H           5.5081   -1.5814   12.8638 H       2  LIG2        0.0624
     77 C           6.0736   -0.3238   14.3702 C.ar    2  LIG2       -0.0127
     78 C           7.5292   -0.4147   14.4871 C.ar    2  LIG2       -0.0127
     79 C           8.4536   -1.1943   13.8016 C.ar    2  LIG2       -0.0527
     80 H           8.1686   -1.7963   13.1240 H       2  LIG2        0.0624
     81 C           9.7988   -1.0783   14.1237 C.ar    2  LIG2       -0.0472
     82 H          10.4454   -1.6028   13.6670 H       2  LIG2        0.0629
     83 C          10.1933   -0.1953   15.1153 C.ar    2  LIG2        0.0182
     84 C           9.2918    0.6056   15.8104 C.ar    2  LIG2       -0.0424
     85 H           9.5836    1.2130   16.4807 H       2  LIG2        0.0632
     86 C           7.9515    0.4790   15.4846 C.ar    2  LIG2       -0.0163
@<TRIPOS>BOND
     1    31    30    1
     2    33    32    1
     3    30    32   ar
     4    30    29   ar
     5    32    34   ar
     6    76    75    1
     7    37    36    1
     8    74    73    1
     9    80    79    1
    10    75    73   ar
    11    75    77   ar
    12    36    38   ar
    13    36    35   ar
    14    73    72   ar
    15     1    29    1
    16    29    27   ar
    17    82    81    1
    18    39    38    1
    19    34    35    1
    20    34    26   ar
    21    79    81   ar
    22    79    78   ar
    23     3     5    2
    24    38    40   ar
    25    35    43   ar
    26    81    83   ar
    27    77    78    1
    28    77    69   ar
    29    78    86   ar
    30    46    48    2
    31    27    26   ar
    32    27    28    1
    33    72    44    1
    34    72    70   ar
    35    26     4    1
    36     8     7    1
    37    40    41   ar
    38    40     2    1
    39     5     4    1
    40     5     6    1
    41    51    50    1
    42    43     4    1
    43    43    41   ar
    44    83    45    1
    45    83    84   ar
    46    69    70   ar
    47    69    47    1
    48    70    71    1
    49    86    84   ar
    50    86    47    1
    51     4    25    1
    52    41    42    1
    53    48    47    1
    54    48    49    1
    55     7     6   ar
    56     7     9   ar
    57    84    85    1
    58    50    49   ar
    59    50    52   ar
    60    47    68    1
    61     6    15   ar
    62    53    52    1
    63    10     9    1
    64    49    58   ar
    65    24    23    1
    66     9    11   ar
    67    52    54   ar
    68    25    23   ar
    69    25    16   ar
    70    23    21   ar
    71    15    16    1
    72    15    13   ar
    73    67    66    1
    74    68    66   ar
    75    68    59   ar
    76    58    59    1
    77    58    56   ar
    78    16    17   ar
    79    11    13   ar
    80    11    12    1
    81    54    56   ar
    82    54    55    1
    83    66    64   ar
    84    59    60   ar
    85    13    14    1
    86    56    57    1
    87    21    22    1
    88    21    19   ar
    89    17    19   ar
    90    17    18    1
    91    64    65    1
    92    64    62   ar
    93    19    20    1
    94    60    62   ar
    95    60    61    1
    96    62    63    1
