@<TRIPOS>MOLECULE
1545399.cif
 34 34 0 0 0
SMALL
GASTEIGER

@<TRIPOS>ATOM
      1 C           8.7808    0.5367    0.4387 C.3     1  LIG1       -0.0034
      2 H           9.3798    1.2286    0.0878 H       1  LIG1        0.0307
      3 H           7.8728    0.8987    0.5154 H       1  LIG1        0.0307
      4 H           8.7750   -0.2310   -0.1699 H       1  LIG1        0.0307
      5 C           9.2605    0.0999    1.7904 C.2     1  LIG1        0.1588
      6 C           8.6667    0.8178    2.9990 C.3     1  LIG1        0.1167
      7 H           8.4434    1.7568    2.7394 H       1  LIG1        0.0676
      8 C           7.3609    0.0734    3.3480 C.3     1  LIG1        0.0076
      9 H           6.8179   -0.0123    2.5256 H       1  LIG1        0.0343
     10 H           7.5912   -0.8410    3.6499 H       1  LIG1        0.0343
     11 C           6.5185    0.7326    4.4122 C.ar    1  LIG1       -0.0106
     12 C           6.6937    0.2835    5.7271 C.ar    1  LIG1       -0.0109
     13 H           7.3636   -0.3673    5.9025 H       1  LIG1        0.0659
     14 C           5.9261    0.7534    6.7801 C.ar    1  LIG1        0.1619
     15 C           4.9204    1.7260    6.5394 C.ar    1  LIG1        0.1637
     16 C           3.2294    3.1340    7.4513 C.3     1  LIG1        0.0790
     17 H           3.6409    3.9296    7.0536 H       1  LIG1        0.0660
     18 H           2.8373    3.3668    8.3193 H       1  LIG1        0.0660
     19 H           2.5285    2.7975    6.8551 H       1  LIG1        0.0660
     20 C           7.0034   -0.6635    8.3680 C.3     1  LIG1        0.0790
     21 H           6.8440   -1.4572    7.8153 H       1  LIG1        0.0660
     22 H           6.9340   -0.9063    9.3158 H       1  LIG1        0.0660
     23 H           7.9005   -0.3124    8.1857 H       1  LIG1        0.0660
     24 C           5.5356    1.7076    4.2160 C.ar    1  LIG1        0.1331
     25 C           4.7344    2.1941    5.2598 C.ar    1  LIG1        0.0142
     26 H           4.0650    2.8448    5.0836 H       1  LIG1        0.0678
     27 N           5.2715    2.2793    2.9034 N.pl3   1  LIG1        0.0568
     28 O           4.2245    2.1231    7.6345 O.3     1  LIG1       -0.4914
     29 O           6.0218    0.3422    8.0572 O.3     1  LIG1       -0.4914
     30 O           9.5658    0.8485    4.0900 O.3     1  LIG1       -0.3840
     31 H           9.6604    0.0724    4.3964 H       1  LIG1        0.2104
     32 O          10.0508   -0.8012    1.9454 O.2     1  LIG1       -0.2949
     33 O           6.0373    2.0327    1.9678 O.2     1  LIG1       -0.1261
     34 O           4.2920    3.0152    2.7705 O.2     1  LIG1       -0.1261
@<TRIPOS>BOND
     1     4     1    1
     2     2     1    1
     3     1     3    1
     4     1     5    1
     5     5    32    2
     6     5     6    1
     7    33    27    2
     8     9     8    1
     9     7     6    1
    10    34    27    2
    11    27    24    1
    12     6     8    1
    13     6    30    1
    14     8    10    1
    15     8    11    1
    16    30    31    1
    17    24    11   ar
    18    24    25   ar
    19    11    12   ar
    20    26    25    1
    21    25    15   ar
    22    12    13    1
    23    12    14   ar
    24    15    14   ar
    25    15    28    1
    26    14    29    1
    27    19    16    1
    28    17    16    1
    29    16    28    1
    30    16    18    1
    31    21    20    1
    32    29    20    1
    33    23    20    1
    34    20    22    1
