@<TRIPOS>MOLECULE
C25 H44 B N
 71 72 0 0 0
SMALL
GASTEIGER

@<TRIPOS>ATOM
      1 C           7.8911    7.1510    4.3301 C.3     1  LIG1        0.0000
      2 H           6.8682    5.2455    4.9566 H       1  LIG1        0.0000
      3 H           8.5651    5.0138    4.3780 H       1  LIG1        0.0000
      4 C           8.2347    9.2689    5.4281 C.3     1  LIG1        0.0000
      5 C           7.1118   10.2869    5.2716 C.3     1  LIG1        0.0000
      6 H           7.4914   11.1892    5.2346 H       1  LIG1        0.0000
      7 H           6.5020   10.2210    6.0366 H       1  LIG1        0.0000
      8 H           6.6197   10.1051    4.4439 H       1  LIG1        0.0000
      9 C           8.9726    9.5765    6.7225 C.3     1  LIG1        0.0000
     10 H           9.2769   10.5077    6.7116 H       1  LIG1        0.0000
     11 H           9.7467    8.9808    6.8064 H       1  LIG1        0.0000
     12 H           8.3702    9.4384    7.4831 H       1  LIG1        0.0000
     13 C           9.1662    9.1980    4.2192 C.3     1  LIG1        0.0000
     14 H          10.1017    9.0584    4.5130 H       1  LIG1        0.0000
     15 H           9.1215   10.0403    3.6997 H       1  LIG1        0.0000
     16 C           8.6930    8.0121    3.3579 C.3     1  LIG1        0.0000
     17 C           7.7837    8.4855    2.2068 C.3     1  LIG1        0.0000
     18 H           8.2784    9.1085    1.6345 H       1  LIG1        0.0000
     19 H           6.9973    8.9376    2.5763 H       1  LIG1        0.0000
     20 H           7.4971    7.7122    1.6779 H       1  LIG1        0.0000
     21 C           9.8846    7.2380    2.7872 C.3     1  LIG1        0.0000
     22 H          10.4095    7.8270    2.2051 H       1  LIG1        0.0000
     23 H           9.5591    6.4729    2.2694 H       1  LIG1        0.0000
     24 H          10.4486    6.9187    3.5214 H       1  LIG1        0.0000
     25 C           6.8779    7.3794    6.5461 C.ar    1  LIG1        0.0000
     26 C           5.4845    7.5574    6.5276 C.ar    1  LIG1        0.0000
     27 C           4.7011    8.0120    5.3055 C.3     1  LIG1        0.0000
     28 H           5.3573    8.2954    4.6062 H       1  LIG1        0.0000
     29 C           3.7746    9.2008    5.5951 C.3     1  LIG1        0.0000
     30 H           3.3683    9.5101    4.7589 H       1  LIG1        0.0000
     31 H           4.2931    9.9294    5.9948 H       1  LIG1        0.0000
     32 H           3.0704    8.9219    6.2166 H       1  LIG1        0.0000
     33 C           3.8923    6.8306    4.7470 C.3     1  LIG1        0.0000
     34 H           3.4393    7.1053    3.9231 H       1  LIG1        0.0000
     35 H           3.2253    6.5495    5.4082 H       1  LIG1        0.0000
     36 H           4.4964    6.0831    4.5548 H       1  LIG1        0.0000
     37 C           4.7785    7.1780    7.6645 C.ar    1  LIG1        0.0000
     38 H           3.8391    7.3155    7.6920 H       1  LIG1        0.0000
     39 C           5.4051    6.6065    8.7548 C.ar    1  LIG1        0.0000
     40 H           4.8994    6.3600    9.5210 H       1  LIG1        0.0000
     41 C           6.7684    6.3951    8.7261 C.ar    1  LIG1        0.0000
     42 H           7.1920    5.9849    9.4712 H       1  LIG1        0.0000
     43 C           7.5374    6.7712    7.6268 C.ar    1  LIG1        0.0000
     44 C           9.0199    6.4266    7.6190 C.3     1  LIG1        0.0000
     45 H           9.4316    6.8480    6.8097 H       1  LIG1        0.0000
     46 C           9.2226    4.9111    7.5188 C.3     1  LIG1        0.0000
     47 H          10.1807    4.7123    7.4750 H       1  LIG1        0.0000
     48 H           8.7819    4.5749    6.7100 H       1  LIG1        0.0000
     49 H           8.8348    4.4767    8.3076 H       1  LIG1        0.0000
     50 C           9.7544    6.9614    8.8585 C.3     1  LIG1        0.0000
     51 H          10.7199    6.8480    8.7399 H       1  LIG1        0.0000
     52 H           9.4627    6.4641    9.6512 H       1  LIG1        0.0000
     53 H           9.5495    7.9125    8.9745 H       1  LIG1        0.0000
     54 C           6.9022    5.2548    2.6368 C.3     1  LIG1        0.0000
     55 H           6.0555    5.7561    2.5265 H       1  LIG1        0.0000
     56 H           7.5373    5.5980    1.9592 H       1  LIG1        0.0000
     57 C           6.6193    3.7683    2.3142 C.3     1  LIG1        0.0000
     58 C           5.6186    3.1725    3.2992 C.3     1  LIG1        0.0000
     59 H           5.4089    2.2526    3.0344 H       1  LIG1        0.0000
     60 H           4.7977    3.7088    3.2963 H       1  LIG1        0.0000
     61 H           6.0060    3.1736    4.1996 H       1  LIG1        0.0000
     62 C           6.0163    3.6723    0.9063 C.3     1  LIG1        0.0000
     63 H           5.8518    2.7318    0.6847 H       1  LIG1        0.0000
     64 H           6.6408    4.0554    0.2572 H       1  LIG1        0.0000
     65 H           5.1711    4.1683    0.8775 H       1  LIG1        0.0000
     66 C           7.9209    2.9644    2.3454 C.3     1  LIG1        0.0000
     67 H           7.7336    2.0307    2.1151 H       1  LIG1        0.0000
     68 H           8.3097    3.0067    3.2433 H       1  LIG1        0.0000
     69 H           8.5525    3.3406    1.6972 H       1  LIG1        0.0000
     70 B           7.5077    5.6084    4.1179 B       1  LIG1        0.0000
     71 N           7.6671    7.8491    5.4172 N.pl3   1  LIG1        0.0000
@<TRIPOS>BOND
     1    64    62    1
     2    63    62    1
     3    65    62    1
     4    62    57    1
     5    18    17    1
     6    20    17    1
     7    69    66    1
     8    56    54    1
     9    67    66    1
    10    22    21    1
    11    17    19    1
    12    17    16    1
    13    23    21    1
    14    57    66    1
    15    57    54    1
    16    57    58    1
    17    66    68    1
    18    55    54    1
    19    54    70    1
    20    21    16    1
    21    21    24    1
    22    59    58    1
    23    60    58    1
    24    58    61    1
    25    16    13    1
    26    16     1    1
    27    15    13    1
    28    34    33    1
    29    70     1    1
    30    70     3    1
    31    70     2    1
    32    13    14    1
    33    13     4    1
    34     1    71    1
    35     8     5    1
    36    36    33    1
    37    28    27    1
    38    33    27    1
    39    33    35    1
    40    30    29    1
    41     6     5    1
    42     5     4    1
    43     5     7    1
    44    27    29    1
    45    27    26    1
    46    71     4    1
    47    71    25    1
    48     4     9    1
    49    29    31    1
    50    29    32    1
    51    26    25   ar
    52    26    37   ar
    53    25    43   ar
    54    48    46    1
    55    10     9    1
    56     9    11    1
    57     9    12    1
    58    45    44    1
    59    47    46    1
    60    46    44    1
    61    46    49    1
    62    44    43    1
    63    44    50    1
    64    43    41   ar
    65    37    38    1
    66    37    39   ar
    67    41    39   ar
    68    41    42    1
    69    51    50    1
    70    39    40    1
    71    50    53    1
    72    50    52    1
