@<TRIPOS>MOLECULE
1546978.cif
 41 42 0 0 0
SMALL
GASTEIGER

@<TRIPOS>ATOM
      1 C           8.8974    3.0045    3.8879 C.ar    1  LIG1       -0.0250
      2 C           8.5639    4.3586    4.0074 C.ar    1  LIG1       -0.0541
      3 H           8.6329    4.7840    4.8540 H       1  LIG1        0.0624
      4 C           8.1355    5.0874    2.9128 C.ar    1  LIG1       -0.0496
      5 H           7.9153    6.0067    3.0067 H       1  LIG1        0.0623
      6 C           8.0292    4.4640    1.6723 C.ar    1  LIG1        0.0548
      7 C           8.3905    3.1302    1.5231 C.ar    1  LIG1       -0.0496
      8 H           8.3377    2.7141    0.6708 H       1  LIG1        0.0623
      9 C           8.8289    2.4085    2.6254 C.ar    1  LIG1       -0.0541
     10 H           9.0852    1.4998    2.5203 H       1  LIG1        0.0624
     11 F           6.6788    6.2038    0.8129 F       1  LIG1       -0.1659
     12 F           7.0112    4.5107   -0.4585 F       1  LIG1       -0.1659
     13 F           8.5920    5.9194   -0.0938 F       1  LIG1       -0.1659
     14 C           7.5821    5.2609    0.4923 C.3     1  LIG1        0.4174
     15 C           9.3206    2.2165    5.0692 C.2     1  LIG1       -0.0540
     16 H          10.2346    1.9588    5.0969 H       1  LIG1        0.0624
     17 C           8.5657    1.8270    6.0990 C.2     1  LIG1       -0.0538
     18 H           9.0280    1.3581    6.7838 H       1  LIG1        0.0624
     19 C           7.1229    2.0152    6.3333 C.ar    1  LIG1       -0.0179
     20 C           6.6426    1.7839    7.6309 C.ar    1  LIG1       -0.0089
     21 H           7.2402    1.4987    8.3121 H       1  LIG1        0.0661
     22 C           5.2946    1.9702    7.9255 C.ar    1  LIG1        0.1657
     23 C           4.4123    2.3885    6.9271 C.ar    1  LIG1        0.2035
     24 C           4.8880    2.5901    5.6258 C.ar    1  LIG1        0.1657
     25 C           6.2299    2.3974    5.3272 C.ar    1  LIG1       -0.0089
     26 H           6.5418    2.5253    4.4390 H       1  LIG1        0.0661
     27 O           4.7229    1.7807    9.1531 O.3     1  LIG1       -0.4913
     28 O           3.0778    2.5426    7.2252 O.3     1  LIG1       -0.4885
     29 O           3.9415    2.9751    4.7202 O.3     1  LIG1       -0.4913
     30 C           5.5577    1.2801   10.1968 C.3     1  LIG1        0.0790
     31 H           6.2705    1.9263   10.3833 H       1  LIG1        0.0660
     32 H           5.9537    0.4281    9.9181 H       1  LIG1        0.0660
     33 H           5.0220    1.1422   11.0058 H       1  LIG1        0.0660
     34 C           2.6932    3.9176    7.3654 C.3     1  LIG1        0.0791
     35 H           2.7881    4.3730    6.5028 H       1  LIG1        0.0660
     36 H           3.2690    4.3518    8.0290 H       1  LIG1        0.0660
     37 H           1.7600    3.9674    7.6602 H       1  LIG1        0.0660
     38 C           4.3636    3.2259    3.3822 C.3     1  LIG1        0.0790
     39 H           5.0272    3.9471    3.3789 H       1  LIG1        0.0660
     40 H           3.5913    3.4902    2.8401 H       1  LIG1        0.0660
     41 H           4.7628    2.4130    3.0079 H       1  LIG1        0.0660
@<TRIPOS>BOND
     1    12    14    1
     2    13    14    1
     3    14    11    1
     4    14     6    1
     5     8     7    1
     6     7     6   ar
     7     7     9   ar
     8     6     4   ar
     9    10     9    1
    10     9     1   ar
    11    40    38    1
    12     4     5    1
    13     4     2   ar
    14    41    38    1
    15    39    38    1
    16    38    29    1
    17     1     2   ar
    18     1    15    1
    19     2     3    1
    20    26    25    1
    21    29    24    1
    22    15    16    1
    23    15    17    2
    24    25    24   ar
    25    25    19   ar
    26    24    23   ar
    27    17    19    1
    28    17    18    1
    29    19    20   ar
    30    35    34    1
    31    23    28    1
    32    23    22   ar
    33    28    34    1
    34    34    37    1
    35    34    36    1
    36    20    22   ar
    37    20    21    1
    38    22    27    1
    39    27    30    1
    40    32    30    1
    41    30    31    1
    42    30    33    1
