@<TRIPOS>MOLECULE
1546280.cif
 47 50 0 0 0
SMALL
GASTEIGER

@<TRIPOS>ATOM
      1 C          -0.7278   20.5947    7.5716 C.ar    1  LIG1        0.0882
      2 C          -1.9795   21.2137    7.3005 C.ar    1  LIG1       -0.0012
      3 C          -1.7291   22.4187    6.6891 C.ar    1  LIG1        0.0581
      4 C           0.3500   23.5773    5.9712 C.ar    1  LIG1        0.0104
      5 H          -0.0936   24.3134    5.6165 H       1  LIG1        0.0813
      6 C           1.6864   23.4940    5.9021 C.ar    1  LIG1       -0.0451
      7 H           2.1723   24.1723    5.4903 H       1  LIG1        0.0632
      8 C           2.3590   22.3837    6.4521 C.ar    1  LIG1       -0.0584
      9 H           3.2869   22.3387    6.4103 H       1  LIG1        0.0619
     10 C           1.6671   21.3843    7.0387 C.ar    1  LIG1       -0.0370
     11 H           2.1182   20.6574    7.4028 H       1  LIG1        0.0638
     12 C           0.2681   21.4437    7.1001 C.ar    1  LIG1        0.0609
     13 C          -2.6586   23.4297    6.1852 C.ar    1  LIG1       -0.0009
     14 C          -3.6444   23.0563    5.2848 C.ar    1  LIG1       -0.0526
     15 H          -3.6870   22.1753    4.9889 H       1  LIG1        0.0624
     16 C          -4.5590   23.9688    4.8269 C.ar    1  LIG1       -0.0611
     17 H          -5.2167   23.7044    4.2258 H       1  LIG1        0.0618
     18 C          -4.5082   25.2508    5.2447 C.ar    1  LIG1       -0.0617
     19 H          -5.1309   25.8649    4.9301 H       1  LIG1        0.0618
     20 C          -3.5401   25.6519    6.1349 C.ar    1  LIG1       -0.0611
     21 H          -3.5090   26.5365    6.4197 H       1  LIG1        0.0618
     22 C          -2.6194   24.7495    6.6047 C.ar    1  LIG1       -0.0526
     23 H          -1.9664   25.0253    7.2075 H       1  LIG1        0.0624
     24 C          -0.4470   19.3466    8.2299 C.2     1  LIG1        0.3415
     25 C          -1.3616   17.4750    9.3707 C.3     1  LIG1        0.0900
     26 H          -0.8738   16.8447    8.8182 H       1  LIG1        0.0695
     27 H          -0.8474   17.6328   10.1782 H       1  LIG1        0.0695
     28 C          -2.6484   16.9332    9.7101 C.3     1  LIG1       -0.0306
     29 H          -3.0600   17.4828   10.3820 H       1  LIG1        0.0262
     30 H          -2.5412   16.0410   10.0478 H       1  LIG1        0.0262
     31 H          -3.2054   16.9141    8.9282 H       1  LIG1        0.0262
     32 C          -3.3474   20.7264    7.6467 C.3     1  LIG1        0.0176
     33 H          -3.9491   21.4880    7.6501 H       1  LIG1        0.0377
     34 H          -3.3232   20.3708    8.5488 H       1  LIG1        0.0377
     35 C          -3.9232   19.6748    6.7411 C.ar    1  LIG1        0.0457
     36 N          -5.1497   19.2949    7.0762 N.ar    1  LIG1       -0.2596
     37 C          -5.7011   18.3447    6.3182 C.ar    1  LIG1        0.0279
     38 H          -6.5595   18.0649    6.5425 H       1  LIG1        0.0829
     39 C          -5.1097   17.7501    5.2387 C.ar    1  LIG1       -0.0436
     40 H          -5.5451   17.0843    4.7570 H       1  LIG1        0.0633
     41 C          -3.8679   18.1654    4.8968 C.ar    1  LIG1       -0.0586
     42 H          -3.4327   17.7985    4.1610 H       1  LIG1        0.0619
     43 N          -0.3580   22.5664    6.5680 N.ar    1  LIG1       -0.3148
     44 C          -3.2628   19.1357    5.6557 C.ar    1  LIG1       -0.0401
     45 H          -2.4071   19.4305    5.4383 H       1  LIG1        0.0636
     46 O           0.6543   18.8648    8.3970 O.2     1  LIG1       -0.2449
     47 O          -1.5406   18.7153    8.6545 O.3     1  LIG1       -0.4614
@<TRIPOS>BOND
     1    42    41    1
     2    17    16    1
     3    40    39    1
     4    16    18   ar
     5    16    14   ar
     6    41    39   ar
     7    41    44   ar
     8    19    18    1
     9    15    14    1
    10    39    37   ar
    11    18    20   ar
    12    14    13   ar
    13    45    44    1
    14     7     6    1
    15     5     4    1
    16    44    35   ar
    17     6     4   ar
    18     6     8   ar
    19     4    43   ar
    20    20    21    1
    21    20    22   ar
    22    13    22   ar
    23    13     3    1
    24    37    38    1
    25    37    36   ar
    26     9     8    1
    27     8    10   ar
    28    43     3   ar
    29    43    12   ar
    30    22    23    1
    31     3     2   ar
    32    35    36   ar
    33    35    32    1
    34    10    12   ar
    35    10    11    1
    36    12     1   ar
    37     2     1   ar
    38     2    32    1
    39     1    24    1
    40    32    33    1
    41    32    34    1
    42    24    46    2
    43    24    47    1
    44    47    25    1
    45    26    25    1
    46    31    28    1
    47    25    28    1
    48    25    27    1
    49    28    30    1
    50    28    29    1
