@<TRIPOS>MOLECULE
?
 19 17 0 0 0
SMALL
GASTEIGER

@<TRIPOS>ATOM
      1 I           5.4489    5.1107    2.9241 I       1  LIG1        0.0000
      2 B           5.4488    6.1183    4.9817 B       1  LIG1        0.0000
      3 N           4.3714    4.3118    6.5719 N.3     1  LIG1        0.0000
      4 N           3.2875    7.7841    5.0369 N.1     1  LIG1        0.0000
      5 C           5.4488    4.9365    6.0538 C.3     1  LIG1        0.0000
      6 C           4.7716    3.3116    7.4485 C.3     1  LIG1        0.0000
      7 C           2.9755    4.6369    6.2969 C.3     1  LIG1        0.0000
      8 H           2.8726    4.8609    5.3492 H       1  LIG1        0.0000
      9 H           2.7048    5.4028    6.8446 H       1  LIG1        0.0000
     10 H           2.4117    3.8651    6.5143 H       1  LIG1        0.0000
     11 C           3.8010    2.4428    8.1776 C.3     1  LIG1        0.0000
     12 H           4.2893    1.8241    8.7598 H       1  LIG1        0.0000
     13 H           3.2693    1.9332    7.5307 H       1  LIG1        0.0000
     14 H           3.2072    3.0008    8.7214 H       1  LIG1        0.0000
     15 C           4.1782    7.0625    5.0233 C.1     1  LIG1        0.0000
     16 C           5.4489    1.5475    4.4270 C.3     1  LIG1        0.0000
     17 H           4.6479    2.0907    4.6340 H       1  LIG1        0.0000
     18 CL          5.4489    1.1190    2.7148 Cl      1  LIG1        0.0000
     19 CL          5.4489    0.0826    5.4276 Cl      1  LIG1        0.0000
@<TRIPOS>BOND
     1    18    16    1
     2     1     2    1
     3    16    17    1
     4    16    19    1
     5     2    15    1
     6     2     5    1
     7    15     4    3
     8     8     7    1
     9     5     3    1
    10     7    10    1
    11     7     3    1
    12     7     9    1
    13     3     6    1
    14     6    11    1
    15    13    11    1
    16    11    14    1
    17    11    12    1
