@<TRIPOS>MOLECULE
?
 30 29 0 0 0
SMALL
GASTEIGER

@<TRIPOS>ATOM
      1 I           4.6009    4.6351    1.5914 I       1  LIG1       -0.0438
      2 C           6.0250    4.7371    3.1541 C.ar    2  LIG2       -0.0179
      3 C           5.8946    3.8917    4.2456 C.ar    2  LIG2       -0.0540
      4 H           5.2112    3.2477    4.3140 H       2  LIG2        0.0624
      5 C           6.8508    3.9772    5.2548 C.ar    2  LIG2       -0.0612
      6 H           6.7854    3.4794    5.9866 H       2  LIG2        0.0618
      7 C           7.8786    4.9122    5.1662 C.ar    2  LIG2       -0.0617
      8 H           8.5354    4.9395    5.8202 H       2  LIG2        0.0618
      9 C           7.9661    5.7659    4.0745 C.ar    2  LIG2       -0.0612
     10 H           8.6610    6.4307    4.0581 H       2  LIG2        0.0618
     11 C           7.0365    5.6826    3.0342 C.ar    2  LIG2       -0.0540
     12 H           7.0626    6.2054    2.2776 H       2  LIG2        0.0624
     13 C           4.0840    2.6207    1.8311 C.ar    1  LIG1        0.0134
     14 C           3.0258    2.3195    2.6654 C.ar    1  LIG1       -0.0486
     15 H           2.5556    3.0018    3.1404 H       1  LIG1        0.0628
     16 C           2.6452    0.9766    2.7770 C.ar    1  LIG1       -0.0608
     17 H           1.9286    0.7779    3.3050 H       1  LIG1        0.0618
     18 C           3.3082    0.0048    2.0554 C.ar    1  LIG1       -0.0617
     19 H           2.9564   -0.9514    2.1990 H       1  LIG1        0.0618
     20 C           4.3519    0.3412    1.2211 C.ar    1  LIG1       -0.0608
     21 H           4.7682   -0.3521    0.6928 H       1  LIG1        0.0618
     22 C           4.7641    1.6663    1.0986 C.ar    1  LIG1       -0.0486
     23 H           5.4593    1.8303    0.5429 H       1  LIG1        0.0628
     24 P           4.1234    8.6690    1.2832 P.3     3  LIG3        0.6235
     25 F           5.2665    7.5560    1.2966 F       3  LIG3       -0.1039
     26 F           4.1473    8.6716   -0.3219 F       3  LIG3       -0.1039
     27 F           3.0036    7.5233    1.2536 F       3  LIG3       -0.1039
     28 F           5.2305    9.8136    1.2785 F       3  LIG3       -0.1039
     29 F           2.9482    9.7652    1.2278 F       3  LIG3       -0.1039
     30 F           4.0813    8.6739    2.8719 F       3  LIG3       -0.1039
@<TRIPOS>BOND
     1    26    24    1
     2    23    22    1
     3    21    20    1
     4    22    20   ar
     5    22    13   ar
     6    20    18   ar
     7    29    24    1
     8    27    24    1
     9    28    24    1
    10    24    25    1
    11    24    30    1
    12     1    13    1
    13    13    14   ar
    14    18    19    1
    15    18    16   ar
    16    12    11    1
    17    14    16   ar
    18    14    15    1
    19    16    17    1
    20    11     2   ar
    21    11     9   ar
    22     2     3   ar
    23    10     9    1
    24     9     7   ar
    25     3     4    1
    26     3     5   ar
    27     7     5   ar
    28     7     8    1
    29     5     6    1
