@<TRIPOS>MOLECULE
(3<i>R</i>,5<i>S</i>,7<i>R</i>,8<i>R</i>,9<i>S</i>,10<i>S</i>,12<i>S</i>,13<i>R</i>,14<i>S</i>)-10,13-Dimethyl-17-[5-oxo-5-(prop-2-yn-1-yloxy)pentan-2-yl]hexadecahydro-1<i>H</i>-cyclopenta[<i>a]</i>phenanthrene-3,7,12-triyl triacetate
 89 92 0 0 0
SMALL
GASTEIGER

@<TRIPOS>ATOM
      1 C           5.7342   -2.8014    3.8524 C.3     1  LIG1        0.0332
      2 H           5.0114   -3.4320    3.8177 H       1  LIG1        0.0342
      3 H           6.3737   -3.0836    4.5109 H       1  LIG1        0.0342
      4 H           6.1600   -2.7551    2.9930 H       1  LIG1        0.0342
      5 C           5.2061   -1.4594    4.2174 C.2     1  LIG1        0.3042
      6 C           5.7829    0.7934    4.7251 C.3     1  LIG1        0.1034
      7 H           4.9783    0.7438    5.2825 H       1  LIG1        0.0734
      8 C           6.9054    1.3688    5.5392 C.3     1  LIG1       -0.0122
      9 H           7.7174    1.3711    5.0081 H       1  LIG1        0.0304
     10 H           7.0583    0.8074    6.3155 H       1  LIG1        0.0304
     11 C           6.5984    2.8014    6.0018 C.3     1  LIG1       -0.0287
     12 H           5.8109    2.7437    6.5821 H       1  LIG1        0.0308
     13 C           7.7268    3.3793    6.8561 C.3     1  LIG1       -0.0119
     14 H           7.3758    4.1282    7.3629 H       1  LIG1        0.0304
     15 H           8.0086    2.7032    7.4920 H       1  LIG1        0.0304
     16 C           8.9369    3.8470    6.0893 C.3     1  LIG1        0.1067
     17 H           9.5204    4.3561    6.6907 H       1  LIG1        0.0737
     18 C           8.5881    4.7157    4.8796 C.3     1  LIG1        0.0031
     19 H           8.2191    5.5572    5.2209 H       1  LIG1        0.0342
     20 C           7.4958    4.0525    4.0141 C.3     1  LIG1       -0.0256
     21 H           7.8577    3.1880    3.7277 H       1  LIG1        0.0311
     22 C           6.2155    3.7417    4.8287 C.3     1  LIG1       -0.0256
     23 C           5.1408    3.0450    3.9825 C.3     1  LIG1       -0.0438
     24 H           4.3215    3.0027    4.5004 H       1  LIG1        0.0272
     25 H           4.9629    3.5914    3.2006 H       1  LIG1        0.0272
     26 C           5.4906    1.6419    3.5198 C.3     1  LIG1       -0.0152
     27 H           4.7501    1.2642    3.0208 H       1  LIG1        0.0301
     28 H           6.2673    1.6701    2.9391 H       1  LIG1        0.0301
     29 C           5.5705    5.0260    5.3791 C.3     1  LIG1       -0.0590
     30 H           5.2998    5.5873    4.6482 H       1  LIG1        0.0235
     31 H           6.2057    5.4957    5.9244 H       1  LIG1        0.0235
     32 H           4.8022    4.7975    5.9076 H       1  LIG1        0.0235
     33 C          10.8165    2.3434    6.1421 C.2     1  LIG1        0.3042
     34 C          11.4498    1.2256    5.4187 C.3     1  LIG1        0.0332
     35 H          12.2438    0.9524    5.8836 H       1  LIG1        0.0342
     36 H          11.6797    1.5082    4.5307 H       1  LIG1        0.0342
     37 H          10.8370    0.4878    5.3711 H       1  LIG1        0.0342
     38 C           9.8002    5.0593    4.0492 C.3     1  LIG1       -0.0255
     39 H          10.1535    4.2119    3.7068 H       1  LIG1        0.0311
     40 C           9.5060    5.9427    2.8181 C.3     1  LIG1        0.0112
     41 C           8.4819    5.2153    1.9539 C.3     1  LIG1        0.1092
     42 H           8.2437    5.7718    1.1833 H       1  LIG1        0.0739
     43 C           7.2289    4.8546    2.7350 C.3     1  LIG1       -0.0114
     44 H           6.6419    4.3387    2.1608 H       1  LIG1        0.0304
     45 H           6.7639    5.6725    2.9719 H       1  LIG1        0.0304
     46 C           8.6963    3.4564    0.3361 C.2     1  LIG1        0.3042
     47 C           9.3413    2.1451    0.1035 C.3     1  LIG1        0.0332
     48 H           9.0883    1.8121   -0.7606 H       1  LIG1        0.0342
     49 H           9.0596    1.5247    0.7802 H       1  LIG1        0.0342
     50 H          10.2955    2.2462    0.1403 H       1  LIG1        0.0342
     51 C          10.9636    5.7741    4.7241 C.3     1  LIG1       -0.0489
     52 H          11.5225    5.1454    5.2062 H       1  LIG1        0.0268
     53 H          10.6419    6.4480    5.3438 H       1  LIG1        0.0268
     54 C          11.7392    6.4206    3.5697 C.3     1  LIG1       -0.0491
     55 H          12.6288    6.0399    3.5070 H       1  LIG1        0.0268
     56 H          11.8218    7.3767    3.7131 H       1  LIG1        0.0268
     57 C           8.8989    7.3034    3.2103 C.3     1  LIG1       -0.0557
     58 H           8.5668    7.7439    2.4247 H       1  LIG1        0.0236
     59 H           9.5737    7.8480    3.6218 H       1  LIG1        0.0236
     60 H           8.1776    7.1656    3.8288 H       1  LIG1        0.0236
     61 C          10.9412    6.1392    2.2737 C.3     1  LIG1       -0.0294
     62 H          11.2416    5.2704    1.9338 H       1  LIG1        0.0310
     63 C          10.6294    6.6447   -0.1875 C.3     1  LIG1       -0.0621
     64 H          10.7408    7.3227   -0.8586 H       1  LIG1        0.0233
     65 H           9.6980    6.4286   -0.1030 H       1  LIG1        0.0233
     66 H          11.1189    5.8595   -0.4419 H       1  LIG1        0.0233
     67 C          11.1546    7.1613    1.1485 C.3     1  LIG1       -0.0399
     68 H          10.6445    7.9661    1.3776 H       1  LIG1        0.0301
     69 C          12.6259    7.5691    1.0098 C.3     1  LIG1       -0.0401
     70 H          12.9564    7.8482    1.8779 H       1  LIG1        0.0273
     71 H          13.1404    6.7938    0.7344 H       1  LIG1        0.0273
     72 C          12.8607    8.6967    0.0075 C.3     1  LIG1        0.0452
     73 H          13.8045    8.9189    0.0005 H       1  LIG1        0.0378
     74 H          12.6243    8.3823   -0.8792 H       1  LIG1        0.0378
     75 C          12.0812    9.9211    0.3058 C.2     1  LIG1        0.3080
     76 C          11.6388   11.5519    1.9628 C.3     1  LIG1        0.1525
     77 H          12.2188   12.0582    2.5529 H       1  LIG1        0.0838
     78 H          11.4535   12.0997    1.1843 H       1  LIG1        0.0838
     79 C          10.4063   11.2642    2.6435 C.1     1  LIG1       -0.0647
     80 C           9.4261   11.0891    3.2266 C.1     1  LIG1       -0.1158
     81 H           8.6362   10.9481    3.6969 H       1  LIG1        0.1229
     82 O           4.0524   -1.1941    4.3800 O.2     1  LIG1       -0.2512
     83 O           6.1714   -0.5544    4.3335 O.3     1  LIG1       -0.4615
     84 O           9.6701    2.6946    5.5773 O.3     1  LIG1       -0.4612
     85 O          11.2618    2.8809    7.1098 O.2     1  LIG1       -0.2512
     86 O           7.9080    3.9865   -0.3881 O.2     1  LIG1       -0.2512
     87 O           9.1073    3.9808    1.4958 O.3     1  LIG1       -0.4610
     88 O          11.3368   10.4757   -0.4506 O.2     1  LIG1       -0.2508
     89 O          12.3170   10.3533    1.5473 O.3     1  LIG1       -0.4517
@<TRIPOS>BOND
     1    74    72    1
     2    64    63    1
     3    48    47    1
     4    88    75    2
     5    66    63    1
     6    86    46    2
     7    63    65    1
     8    63    67    1
     9    73    72    1
    10    72    75    1
    11    72    69    1
    12    47    50    1
    13    47    46    1
    14    47    49    1
    15    75    89    1
    16    46    87    1
    17    71    69    1
    18    69    67    1
    19    69    70    1
    20    67    68    1
    21    67    61    1
    22    42    41    1
    23    78    76    1
    24    87    41    1
    25    89    76    1
    26    62    61    1
    27    41    43    1
    28    41    40    1
    29    76    77    1
    30    76    79    1
    31    44    43    1
    32    61    40    1
    33    61    54    1
    34    58    57    1
    35    79    80    3
    36    43    45    1
    37    43    20    1
    38    40    57    1
    39    40    38    1
    40    28    26    1
    41     4     1    1
    42    27    26    1
    43    25    23    1
    44    57    59    1
    45    57    60    1
    46    80    81    1
    47    55    54    1
    48    26    23    1
    49    26     6    1
    50    54    56    1
    51    54    51    1
    52    39    38    1
    53    21    20    1
    54     2     1    1
    55     1     5    1
    56     1     3    1
    57    23    24    1
    58    23    22    1
    59    20    22    1
    60    20    18    1
    61    38    51    1
    62    38    18    1
    63     5    83    1
    64     5    82    2
    65    83     6    1
    66    36    34    1
    67    30    29    1
    68    51    52    1
    69    51    53    1
    70     6     7    1
    71     6     8    1
    72    22    29    1
    73    22    11    1
    74    18    19    1
    75    18    16    1
    76     9     8    1
    77    37    34    1
    78    29    32    1
    79    29    31    1
    80    34    35    1
    81    34    33    1
    82     8    11    1
    83     8    10    1
    84    84    16    1
    85    84    33    1
    86    11    12    1
    87    11    13    1
    88    16    17    1
    89    16    13    1
    90    33    85    2
    91    13    14    1
    92    13    15    1
