@<TRIPOS>MOLECULE
?
 54 57 0 0 0
SMALL
GASTEIGER

@<TRIPOS>ATOM
      1 S           0.2286    1.6306    7.5119 S.O2    1  LIG1        0.1013
      2 N           0.9427    2.1253    4.5767 N.4     1  LIG1       -0.0789
      3 N           1.5226    2.1119    2.3791 N.3     1  LIG1       -0.1411
      4 N           1.4433    2.4947    6.8491 N.pl3   1  LIG1       -0.0851
      5 O           1.9978    1.1530    4.4224 O.3     1  LIG1       -0.1649
      6 O           0.5196    1.5580    8.8964 O.2     1  LIG1       -0.1359
      7 O          -0.9822    2.2229    7.0855 O.2     1  LIG1       -0.1359
      8 C           2.5633    1.3971    3.1024 C.3     1  LIG1        0.2036
      9 H           3.3659    1.9541    3.1773 H       1  LIG1        0.0883
     10 C           0.6932    2.5442    3.2479 C.3     1  LIG1        0.3014
     11 C          -0.5142    3.3530    2.9412 C.ar    1  LIG1        0.0258
     12 C          -0.7154    3.7911    1.6454 C.ar    1  LIG1       -0.0526
     13 H          -0.1079    3.5597    0.9792 H       1  LIG1        0.0622
     14 C          -1.8035    4.5687    1.3333 C.ar    1  LIG1       -0.0613
     15 H          -1.9368    4.8518    0.4568 H       1  LIG1        0.0618
     16 C          -2.6934    4.9279    2.3057 C.ar    1  LIG1       -0.0617
     17 H          -3.4230    5.4636    2.0951 H       1  LIG1        0.0618
     18 C          -2.5078    4.4957    3.5892 C.ar    1  LIG1       -0.0613
     19 H          -3.1169    4.7392    4.2482 H       1  LIG1        0.0618
     20 C          -1.4336    3.7043    3.9163 C.ar    1  LIG1       -0.0526
     21 H          -1.3229    3.4060    4.7893 H       1  LIG1        0.0622
     22 C           2.9196    0.0514    2.5426 C.ar    1  LIG1        0.0016
     23 C           2.0034   -0.9314    2.4690 C.ar    1  LIG1       -0.0546
     24 H           1.1262   -0.7610    2.7298 H       1  LIG1        0.0622
     25 C           2.3365   -2.1657    2.0202 C.ar    1  LIG1       -0.0614
     26 H           1.6877   -2.8307    1.9753 H       1  LIG1        0.0618
     27 C           3.6086   -2.4366    1.6341 C.ar    1  LIG1       -0.0617
     28 H           3.8323   -3.2949    1.3537 H       1  LIG1        0.0618
     29 C           4.5508   -1.4702    1.6532 C.ar    1  LIG1       -0.0614
     30 H           5.4153   -1.6497    1.3630 H       1  LIG1        0.0618
     31 C           4.2098   -0.1978    2.1181 C.ar    1  LIG1       -0.0546
     32 H           4.8490    0.4764    2.1419 H       1  LIG1        0.0622
     33 C           1.3046    3.0733    5.5564 C.2     1  LIG1        0.3235
     34 C           1.5143    4.3566    5.3020 C.2     1  LIG1        0.0368
     35 H           1.5561    4.5703    4.3980 H       1  LIG1        0.0704
     36 C           1.6910    5.4903    6.2041 C.ar    1  LIG1       -0.0174
     37 C           2.1017    6.6948    5.6478 C.ar    1  LIG1       -0.0543
     38 H           2.2810    6.7451    4.7369 H       1  LIG1        0.0623
     39 C           2.2445    7.8195    6.4332 C.ar    1  LIG1       -0.0612
     40 H           2.5046    8.6231    6.0438 H       1  LIG1        0.0618
     41 C           2.0097    7.7678    7.7663 C.ar    1  LIG1       -0.0617
     42 H           2.1255    8.5257    8.2905 H       1  LIG1        0.0618
     43 C           1.6084    6.6066    8.3267 C.ar    1  LIG1       -0.0612
     44 H           1.4434    6.5731    9.2417 H       1  LIG1        0.0618
     45 C           1.4407    5.4712    7.5650 C.ar    1  LIG1       -0.0543
     46 H           1.1563    4.6844    7.9685 H       1  LIG1        0.0623
     47 C           2.7933    2.2813    7.3653 C.3     1  LIG1        0.0961
     48 H           3.0788    1.3895    7.1541 H       1  LIG1        0.0711
     49 H           2.7933    2.4000    8.3186 H       1  LIG1        0.0711
     50 H           3.3929    2.9144    6.9631 H       1  LIG1        0.0711
     51 C           0.3093    0.0090    6.8706 C.3     1  LIG1        0.0927
     52 H          -0.3093   -0.5525    7.3432 H       1  LIG1        0.0502
     53 H           1.1992   -0.3333    6.9781 H       1  LIG1        0.0502
     54 H           0.0825    0.0213    5.9371 H       1  LIG1        0.0502
@<TRIPOS>BOND
     1    15    14    1
     2    13    12    1
     3    14    12   ar
     4    14    16   ar
     5    28    27    1
     6    30    29    1
     7    27    29   ar
     8    27    25   ar
     9    12    11   ar
    10    29    31   ar
    11    26    25    1
    12    25    23   ar
    13    17    16    1
    14    31    32    1
    15    31    22   ar
    16    16    18   ar
    17     3     8    1
    18     3    10    1
    19    23    22   ar
    20    23    24    1
    21    22     8    1
    22    11    10    1
    23    11    20   ar
    24     8     9    1
    25     8     5    1
    26    10     2    1
    27    18    20   ar
    28    18    19    1
    29    20    21    1
    30    35    34    1
    31     5     2    1
    32     2    33    1
    33    38    37    1
    34    34    33    2
    35    34    36    1
    36    33     4    1
    37    37    36   ar
    38    37    39   ar
    39    54    51    1
    40    40    39    1
    41    36    45   ar
    42    39    41   ar
    43     4    47    1
    44     4     1    1
    45    51    53    1
    46    51    52    1
    47    51     1    1
    48    50    47    1
    49     7     1    2
    50    48    47    1
    51    47    49    1
    52     1     6    2
    53    45    46    1
    54    45    43   ar
    55    41    42    1
    56    41    43   ar
    57    43    44    1
