@<TRIPOS>MOLECULE
C25 H23 N O2 S
 52 55 0 0 0
SMALL
GASTEIGER

@<TRIPOS>ATOM
      1 S           5.5715    3.7808    2.2170 S.O2    1  LIG1        0.0614
      2 O           6.6216    4.6333    1.7133 O.2     1  LIG1       -0.1528
      3 O           5.9095    2.5843    2.9385 O.2     1  LIG1       -0.1528
      4 N           4.6689    4.6948    3.2243 N.3     1  LIG1       -0.1679
      5 C           5.3330    4.8654    8.3048 C.ar    1  LIG1       -0.0179
      6 C           6.0093    5.4470    7.1941 C.ar    1  LIG1       -0.0176
      7 C           3.8744    4.0367    4.2989 C.3     1  LIG1        0.0814
      8 H           4.0019    3.0509    4.1859 H       1  LIG1        0.0579
      9 C           5.5249    5.1779    5.8873 C.ar    1  LIG1       -0.0490
     10 H           5.9773    5.5523    5.1393 H       1  LIG1        0.0627
     11 C           4.5617    3.3176    0.8441 C.ar    1  LIG1        0.1055
     12 C           4.4186    4.3903    5.6772 C.ar    1  LIG1       -0.0237
     13 C           2.3696    4.2999    4.1830 C.ar    1  LIG1       -0.0243
     14 C           3.7363    3.7355   -1.3670 C.ar    1  LIG1       -0.0570
     15 H           3.7449    4.2587   -2.1603 H       1  LIG1        0.0621
     16 C           0.1690    3.5798    3.4802 C.ar    1  LIG1       -0.0614
     17 H          -0.3849    2.9238    3.0741 H       1  LIG1        0.0618
     18 C           7.1465    6.2632    7.4400 C.ar    1  LIG1       -0.0540
     19 H           7.6170    6.6433    6.7070 H       1  LIG1        0.0624
     20 C           2.8977    2.6319   -1.2964 C.ar    1  LIG1       -0.0503
     21 C           5.8003    5.1459    9.6153 C.ar    1  LIG1       -0.0540
     22 H           5.3557    4.7669   10.3634 H       1  LIG1        0.0624
     23 C           4.5652    4.0984   -0.3081 C.ar    1  LIG1       -0.0351
     24 H           5.1233    4.8643   -0.3721 H       1  LIG1        0.0637
     25 C           1.5388    3.3588    3.5820 C.ar    1  LIG1       -0.0567
     26 H           1.9118    2.5563    3.2371 H       1  LIG1        0.0621
     27 C           7.5738    6.5105    8.7156 C.ar    1  LIG1       -0.0612
     28 H           8.3370    7.0565    8.8626 H       1  LIG1        0.0618
     29 C           4.1980    4.0411    8.0655 C.ar    1  LIG1       -0.0537
     30 H           3.7437    3.6439    8.7994 H       1  LIG1        0.0624
     31 C           0.4143    5.6908    4.5665 C.ar    1  LIG1       -0.0614
     32 H           0.0318    6.4945    4.8990 H       1  LIG1        0.0618
     33 C           4.3313    6.0571    2.8028 C.3     1  LIG1        0.0100
     34 H           4.3258    6.6490    3.5838 H       1  LIG1        0.0408
     35 H           3.4452    6.0606    2.3845 H       1  LIG1        0.0408
     36 H           4.9983    6.3742    2.1584 H       1  LIG1        0.0408
     37 C           3.7534    3.8145    6.8012 C.ar    1  LIG1       -0.0561
     38 H           2.9911    3.2650    6.6636 H       1  LIG1        0.0621
     39 C           3.7560    2.1866    0.9289 C.ar    1  LIG1       -0.0351
     40 H           3.7721    1.6416    1.7071 H       1  LIG1        0.0637
     41 C           1.7887    5.4687    4.6852 C.ar    1  LIG1       -0.0567
     42 H           2.3344    6.1190    5.1110 H       1  LIG1        0.0621
     43 C           6.8839    5.9552    9.8122 C.ar    1  LIG1       -0.0612
     44 H           7.1751    6.1464   10.6959 H       1  LIG1        0.0618
     45 C           2.9260    1.8626   -0.1366 C.ar    1  LIG1       -0.0570
     46 H           2.3664    1.0979   -0.0735 H       1  LIG1        0.0621
     47 C           1.9989    2.2530   -2.4495 C.3     1  LIG1       -0.0397
     48 H           1.0640    2.2736   -2.1556 H       1  LIG1        0.0278
     49 H           2.2251    1.3497   -2.7567 H       1  LIG1        0.0278
     50 H           2.1252    2.8895   -3.1844 H       1  LIG1        0.0278
     51 C          -0.3880    4.7418    3.9645 C.ar    1  LIG1       -0.0617
     52 H          -1.3231    4.8906    3.8853 H       1  LIG1        0.0618
@<TRIPOS>BOND
     1    50    47    1
     2    49    47    1
     3    47    48    1
     4    47    20    1
     5    15    14    1
     6    14    20   ar
     7    14    23   ar
     8    20    45   ar
     9    24    23    1
    10    23    11   ar
    11    45    46    1
    12    45    39   ar
    13    11    39   ar
    14    11     1    1
    15    39    40    1
    16     2     1    2
    17    36    33    1
    18     1     3    2
    19     1     4    1
    20    35    33    1
    21    33     4    1
    22    33    34    1
    23    17    16    1
    24     4     7    1
    25    26    25    1
    26    16    25   ar
    27    16    51   ar
    28    25    13   ar
    29    52    51    1
    30    51    31   ar
    31    13     7    1
    32    13    41   ar
    33     8     7    1
    34     7    12    1
    35    31    41   ar
    36    31    32    1
    37    41    42    1
    38    10     9    1
    39    12     9   ar
    40    12    37   ar
    41     9     6   ar
    42    38    37    1
    43    19    18    1
    44    37    29   ar
    45     6    18   ar
    46     6     5   ar
    47    18    27   ar
    48    29     5   ar
    49    29    30    1
    50     5    21   ar
    51    27    28    1
    52    27    43   ar
    53    21    43   ar
    54    21    22    1
    55    43    44    1
