@<TRIPOS>MOLECULE
C23 H19 F3 O
 46 48 0 0 0
SMALL
GASTEIGER

@<TRIPOS>ATOM
      1 F          14.2806   -0.1878   21.4568 F       1  LIG1       -0.1659
      2 F          13.3110   -1.9135   22.1871 F       1  LIG1       -0.1659
      3 F          13.0761   -0.0502   23.2062 F       1  LIG1       -0.1659
      4 O           5.4263   -0.6090   18.3916 O.3     1  LIG1       -0.3863
      5 H           5.4785    0.1744   18.6900 H       1  LIG1        0.2103
      6 C           4.5806   -0.2390   16.1265 C.ar    1  LIG1       -0.0183
      7 C           4.2409   -1.0264   15.0408 C.ar    1  LIG1       -0.0561
      8 H           4.7356   -1.8188   14.8632 H       1  LIG1        0.0621
      9 C           3.1884   -0.6759   14.2053 C.ar    1  LIG1       -0.0614
     10 H           2.9663   -1.2264   13.4631 H       1  LIG1        0.0618
     11 C           2.4647    0.4736   14.4538 C.ar    1  LIG1       -0.0617
     12 H           1.7487    0.7205   13.8794 H       1  LIG1        0.0618
     13 C           2.7884    1.2621   15.5410 C.ar    1  LIG1       -0.0614
     14 H           2.2884    2.0506   15.7184 H       1  LIG1        0.0618
     15 C           3.8385    0.9105   16.3760 C.ar    1  LIG1       -0.0561
     16 H           4.0524    1.4582   17.1234 H       1  LIG1        0.0621
     17 C           5.7645   -0.6118   16.9971 C.3     1  LIG1        0.0904
     18 H           6.0329   -1.5440   16.7551 H       1  LIG1        0.0653
     19 C           6.9916    0.3026   16.7562 C.3     1  LIG1        0.0326
     20 H           6.7261    1.2353   16.9998 H       1  LIG1        0.0420
     21 C           7.4183    0.3115   15.2941 C.ar    1  LIG1       -0.0378
     22 C           7.0853    1.3708   14.4702 C.ar    1  LIG1       -0.0579
     23 H           6.5632    2.0845   14.8153 H       1  LIG1        0.0620
     24 C           7.5017    1.4092   13.1466 C.ar    1  LIG1       -0.0615
     25 H           7.2622    2.1447   12.5954 H       1  LIG1        0.0618
     26 C           8.2592    0.3861   12.6312 C.ar    1  LIG1       -0.0617
     27 H           8.5529    0.4168   11.7276 H       1  LIG1        0.0618
     28 C           8.5888   -0.6809   13.4286 C.ar    1  LIG1       -0.0615
     29 H           9.1084   -1.3930   13.0747 H       1  LIG1        0.0618
     30 C           8.1655   -0.7233   14.7482 C.ar    1  LIG1       -0.0579
     31 H           8.3898   -1.4722   15.2870 H       1  LIG1        0.0620
     32 C           8.1220   -0.1014   17.6635 C.2     1  LIG1       -0.0733
     33 H           8.4769   -0.9762   17.5573 H       1  LIG1        0.0579
     34 C           8.6605    0.6681   18.5979 C.2     1  LIG1       -0.0579
     35 H           8.2786    1.5301   18.7203 H       1  LIG1        0.0621
     36 C           9.7939    0.3120   19.4657 C.ar    1  LIG1       -0.0253
     37 C          10.5417   -0.8570   19.2901 C.ar    1  LIG1       -0.0541
     38 H          10.3130   -1.4571   18.5891 H       1  LIG1        0.0624
     39 C          11.6054   -1.1534   20.1158 C.ar    1  LIG1       -0.0496
     40 H          12.1046   -1.9503   19.9790 H       1  LIG1        0.0623
     41 C          11.9477   -0.2859   21.1493 C.ar    1  LIG1        0.0548
     42 C          11.2219    0.8765   21.3410 C.ar    1  LIG1       -0.0496
     43 H          11.4538    1.4722   22.0425 H       1  LIG1        0.0623
     44 C          10.1549    1.1702   20.5050 C.ar    1  LIG1       -0.0541
     45 H           9.6606    1.9698   20.6425 H       1  LIG1        0.0624
     46 C          13.1321   -0.6024   22.0087 C.3     1  LIG1        0.4174
@<TRIPOS>BOND
     1    27    26    1
     2    25    24    1
     3    26    24   ar
     4    26    28   ar
     5    29    28    1
     6    24    22   ar
     7    28    30   ar
     8    10     9    1
     9    12    11    1
    10     9    11   ar
    11     9     7   ar
    12    11    13   ar
    13    22    23    1
    14    22    21   ar
    15    30    31    1
    16    30    21   ar
    17     8     7    1
    18     7     6   ar
    19    21    19    1
    20    13    14    1
    21    13    15   ar
    22     6    15   ar
    23     6    17    1
    24    15    16    1
    25    18    17    1
    26    19    17    1
    27    19    20    1
    28    19    32    1
    29    17     4    1
    30    33    32    1
    31    32    34    2
    32     4     5    1
    33    38    37    1
    34    34    35    1
    35    34    36    1
    36    37    36   ar
    37    37    39   ar
    38    36    44   ar
    39    40    39    1
    40    39    41   ar
    41    44    45    1
    42    44    42   ar
    43    41    42   ar
    44    41    46    1
    45    42    43    1
    46     1    46    1
    47    46     2    1
    48    46     3    1
