@<TRIPOS>MOLECULE
1547251.cif
 78 80 0 0 0
SMALL
GASTEIGER

@<TRIPOS>ATOM
      1 P           1.8111    0.8781    2.1968 P.3     1  LIG1        0.6235
      2 F           0.6166    1.2935    3.1793 F       1  LIG1       -0.1039
      3 F           1.0181    1.5375    0.9675 F       1  LIG1       -0.1039
      4 F           2.9979    0.4475    1.2019 F       1  LIG1       -0.1039
      5 F           2.5771    0.1579    3.3994 F       1  LIG1       -0.1039
      6 F           1.0606   -0.5029    1.8608 F       1  LIG1       -0.1039
      7 F           2.5410    2.2386    2.5049 F       1  LIG1       -0.1039
      8 P           5.1772    6.8225    7.9469 P.3     2  LIG2        0.6235
      9 F           4.3554    7.2160    6.6468 F       2  LIG2       -0.1039
     10 F           3.9812    5.8960    8.4614 F       2  LIG2       -0.1039
     11 F           5.9998    6.4134    9.2557 F       2  LIG2       -0.1039
     12 F           6.3773    7.7342    7.4526 F       2  LIG2       -0.1039
     13 F           4.5177    8.0548    8.7011 F       2  LIG2       -0.1039
     14 F           5.8121    5.5690    7.2013 F       2  LIG2       -0.1039
     15 N           1.0825    6.7992    7.3410 N.pl3   3  LIG3       -0.3045
     16 N           0.8535    4.6440    7.0186 N.pl3   3  LIG3       -0.3026
     17 N           4.9932    2.7365   10.3429 N.pl3   3  LIG3       -0.3026
     18 N           4.6957    3.6924   12.2907 N.pl3   3  LIG3       -0.3045
     19 C           0.8186    5.6300    7.9135 C.3     3  LIG3        0.1266
     20 H           0.6307    5.5125    8.8365 H       3  LIG3        0.0746
     21 C           1.2926    6.5731    5.9779 C.ar    3  LIG3        0.0528
     22 C           1.5793    7.4370    4.9232 C.ar    3  LIG3       -0.0388
     23 H           1.6615    8.3747    5.0513 H       3  LIG3        0.0637
     24 C           1.7381    6.8492    3.6736 C.ar    3  LIG3       -0.0599
     25 H           1.9380    7.4009    2.9278 H       3  LIG3        0.0618
     26 C           1.6116    5.4643    3.4821 C.ar    3  LIG3       -0.0599
     27 H           1.7275    5.1069    2.6103 H       3  LIG3        0.0618
     28 C           1.3237    4.6050    4.5255 C.ar    3  LIG3       -0.0388
     29 H           1.2427    3.6673    4.3992 H       3  LIG3        0.0637
     30 C           1.1592    5.1993    5.7758 C.ar    3  LIG3        0.0528
     31 C           0.6548    3.2188    7.2852 C.3     3  LIG3        0.0391
     32 H           0.0339    2.8441    6.6103 H       3  LIG3        0.0514
     33 H           0.2390    3.1091    8.1768 H       3  LIG3        0.0514
     34 C           1.9592    2.4487    7.2452 C.ar    3  LIG3       -0.0298
     35 C           2.1089    1.3478    6.4070 C.ar    3  LIG3       -0.0571
     36 H           1.4091    1.1063    5.8118 H       3  LIG3        0.0621
     37 C           3.2804    0.6028    6.4414 C.ar    3  LIG3       -0.0611
     38 H           3.3694   -0.1636    5.8878 H       3  LIG3        0.0618
     39 C           4.3272    0.9738    7.2844 C.ar    3  LIG3       -0.0571
     40 H           5.1240    0.4558    7.3137 H       3  LIG3        0.0621
     41 C           4.2005    2.1073    8.0844 C.ar    3  LIG3       -0.0298
     42 C           3.0141    2.8304    8.0783 C.ar    3  LIG3       -0.0524
     43 H           2.9200    3.5880    8.6426 H       3  LIG3        0.0624
     44 C           5.3661    2.5580    8.9342 C.3     3  LIG3        0.0391
     45 H           6.0913    1.8874    8.8726 H       3  LIG3        0.0514
     46 H           5.7141    3.4143    8.5798 H       3  LIG3        0.0514
     47 C           4.5836    1.7325   11.2186 C.ar    3  LIG3        0.0528
     48 C           4.3666    0.3728   11.0203 C.ar    3  LIG3       -0.0388
     49 H           4.5043   -0.0432   10.1768 H       3  LIG3        0.0637
     50 C           3.9359   -0.3373   12.1293 C.ar    3  LIG3       -0.0599
     51 H           3.7712   -1.2680   12.0418 H       3  LIG3        0.0618
     52 C           3.7355    0.2741   13.3777 C.ar    3  LIG3       -0.0599
     53 H           3.4410   -0.2560   14.1083 H       3  LIG3        0.0618
     54 C           3.9553    1.6243   13.5735 C.ar    3  LIG3       -0.0388
     55 H           3.8147    2.0410   14.4163 H       3  LIG3        0.0637
     56 C           4.3949    2.3400   12.4593 C.ar    3  LIG3        0.0528
     57 C           5.0507    3.8783   11.0196 C.3     3  LIG3        0.1266
     58 H           5.3100    4.7134   10.6483 H       3  LIG3        0.0746
     59 C           1.1716    8.1236    8.0080 C.3     3  LIG3        0.0198
     60 H           1.9928    8.5835    7.6730 H       3  LIG3        0.0495
     61 C          -0.0297    8.9773    7.6355 C.3     3  LIG3       -0.0467
     62 H          -0.0982    9.0363    6.6597 H       3  LIG3        0.0247
     63 H           0.0791    9.8766    8.0095 H       3  LIG3        0.0247
     64 H          -0.8443    8.5695    7.9962 H       3  LIG3        0.0247
     65 C           1.3057    7.9621    9.5135 C.3     3  LIG3       -0.0467
     66 H           2.0426    7.3467    9.7110 H       3  LIG3        0.0247
     67 H           0.4720    7.6007    9.8783 H       3  LIG3        0.0247
     68 H           1.4901    8.8345    9.9201 H       3  LIG3        0.0247
     69 C           4.6681    4.7084   13.3705 C.3     3  LIG3        0.0198
     70 H           3.8443    4.5508   13.9144 H       3  LIG3        0.0495
     71 C           4.5811    6.1038   12.7973 C.3     3  LIG3       -0.0467
     72 H           3.8388    6.1500   12.1597 H       3  LIG3        0.0247
     73 H           5.4183    6.3217   12.3384 H       3  LIG3        0.0247
     74 H           4.4303    6.7463   13.5228 H       3  LIG3        0.0247
     75 C           5.8700    4.5146   14.2830 C.3     3  LIG3       -0.0467
     76 H           5.8572    3.6071   14.6521 H       3  LIG3        0.0247
     77 H           5.8313    5.1652   15.0152 H       3  LIG3        0.0247
     78 H           6.6941    4.6492   13.7699 H       3  LIG3        0.0247
@<TRIPOS>BOND
     1     3     1    1
     2     4     1    1
     3     6     1    1
     4     1     7    1
     5     1     2    1
     6     1     5    1
     7    27    26    1
     8    25    24    1
     9    26    24   ar
    10    26    28   ar
    11    24    22   ar
    12    29    28    1
    13    28    30   ar
    14    22    23    1
    15    22    21   ar
    16    30    21   ar
    17    30    16    1
    18    36    35    1
    19    38    37    1
    20    21    15    1
    21    35    37   ar
    22    35    34   ar
    23    37    39   ar
    24    32    31    1
    25     9     8    1
    26    62    61    1
    27    16    31    1
    28    16    19    1
    29    14     8    1
    30    34    31    1
    31    34    42   ar
    32    39    40    1
    33    39    41   ar
    34    31    33    1
    35    15    19    1
    36    15    59    1
    37    12     8    1
    38    61    64    1
    39    61    59    1
    40    61    63    1
    41    60    59    1
    42    19    20    1
    43     8    10    1
    44     8    13    1
    45     8    11    1
    46    59    65    1
    47    42    41   ar
    48    42    43    1
    49    41    44    1
    50    46    44    1
    51    45    44    1
    52    44    17    1
    53    65    66    1
    54    65    67    1
    55    65    68    1
    56    49    48    1
    57    17    57    1
    58    17    47    1
    59    58    57    1
    60    57    18    1
    61    48    47   ar
    62    48    50   ar
    63    47    56   ar
    64    51    50    1
    65    50    52   ar
    66    72    71    1
    67    18    56    1
    68    18    69    1
    69    73    71    1
    70    56    54   ar
    71    71    69    1
    72    71    74    1
    73    69    70    1
    74    69    75    1
    75    52    54   ar
    76    52    53    1
    77    54    55    1
    78    78    75    1
    79    75    76    1
    80    75    77    1
