@<TRIPOS>MOLECULE
?
 53 56 0 0 0
SMALL
GASTEIGER

@<TRIPOS>ATOM
      1 BR          8.3577    9.9340    6.4167 Br      1  LIG1       -0.0503
      2 C           6.9453    8.8506    7.0465 C.ar    1  LIG1        0.0179
      3 C           5.6679    9.1164    6.6840 C.ar    1  LIG1       -0.0471
      4 H           5.4865    9.8163    6.0993 H       1  LIG1        0.0629
      5 C           4.6414    8.3505    7.1799 C.ar    1  LIG1       -0.0518
      6 H           3.7668    8.5388    6.9281 H       1  LIG1        0.0624
      7 C           4.8913    7.2972    8.0511 C.ar    1  LIG1       -0.0021
      8 C           6.2037    7.0264    8.3738 C.ar    1  LIG1       -0.0518
      9 H           6.3959    6.3168    8.9437 H       1  LIG1        0.0624
     10 C           7.2269    7.7812    7.8726 C.ar    1  LIG1       -0.0471
     11 H           8.1084    7.5767    8.0875 H       1  LIG1        0.0629
     12 C           3.7883    6.5137    8.6363 C.2     1  LIG1        0.0680
     13 C           2.4674    6.4131    7.9113 C.3     1  LIG1       -0.0065
     14 H           2.6316    6.2786    6.9643 H       1  LIG1        0.0329
     15 H           1.9802    7.2453    8.0147 H       1  LIG1        0.0329
     16 C           1.6301    5.2729    8.4405 C.3     1  LIG1       -0.0252
     17 H           0.7151    5.3743    8.1336 H       1  LIG1        0.0288
     18 H           1.9711    4.4332    8.0950 H       1  LIG1        0.0288
     19 C           1.6535    5.2415    9.9507 C.3     1  LIG1        0.0689
     20 H           1.1916    4.4303   10.2502 H       1  LIG1        0.0538
     21 C           0.9692    6.4571   10.6058 C.3     1  LIG1       -0.0057
     22 H           1.1632    6.4571   11.5558 H       1  LIG1        0.0332
     23 H           1.3379    7.2706   10.2269 H       1  LIG1        0.0332
     24 C          -0.5056    6.4524   10.4089 C.ar    1  LIG1       -0.0455
     25 C          -1.1240    7.3912    9.6216 C.ar    1  LIG1       -0.0585
     26 H          -0.6103    8.0317    9.1848 H       1  LIG1        0.0620
     27 C          -2.4849    7.3991    9.4699 C.ar    1  LIG1       -0.0615
     28 H          -2.8931    8.0566    8.9557 H       1  LIG1        0.0618
     29 C          -3.2405    6.4351   10.0766 C.ar    1  LIG1       -0.0617
     30 H          -4.1606    6.4172    9.9421 H       1  LIG1        0.0618
     31 C          -2.6643    5.5167   10.8661 C.ar    1  LIG1       -0.0615
     32 H          -3.1854    4.8746   11.2895 H       1  LIG1        0.0618
     33 C          -1.3010    5.5277   11.0468 C.ar    1  LIG1       -0.0585
     34 H          -0.9092    4.8985   11.6097 H       1  LIG1        0.0620
     35 C           5.0100    3.9457   11.6674 C.ar    1  LIG1        0.1102
     36 C           5.1881    3.0021   10.6929 C.ar    1  LIG1       -0.0348
     37 H           4.4978    2.8130   10.0986 H       1  LIG1        0.0637
     38 C           6.3809    2.3369   10.5886 C.ar    1  LIG1       -0.0570
     39 H           6.4847    1.6933    9.9250 H       1  LIG1        0.0621
     40 C           7.4217    2.5932   11.4362 C.ar    1  LIG1       -0.0503
     41 C           7.2306    3.5321   12.4064 C.ar    1  LIG1       -0.0570
     42 H           7.9282    3.7202   12.9924 H       1  LIG1        0.0621
     43 C           6.0325    4.2130   12.5494 C.ar    1  LIG1       -0.0348
     44 H           5.9220    4.8398   13.2275 H       1  LIG1        0.0637
     45 C           8.7121    1.8494   11.2716 C.3     1  LIG1       -0.0397
     46 H           9.3396    2.1467   11.9338 H       1  LIG1        0.0278
     47 H           9.0675    2.0155   10.3956 H       1  LIG1        0.0278
     48 H           8.5545    0.9082   11.3795 H       1  LIG1        0.0278
     49 N           4.0458    5.9424    9.7496 N.2     1  LIG1       -0.1673
     50 N           3.0744    5.1341   10.3293 N.pl3   1  LIG1       -0.1198
     51 O           3.6956    5.9179   12.6817 O.2     1  LIG1       -0.1485
     52 O           2.4613    3.8444   12.3010 O.2     1  LIG1       -0.1485
     53 S           3.4716    4.7598   11.8804 S.O2    1  LIG1        0.0891
@<TRIPOS>BOND
     1     4     3    1
     2     1     2    1
     3     3     2   ar
     4     3     5   ar
     5     6     5    1
     6    14    13    1
     7     2    10   ar
     8     5     7   ar
     9    10    11    1
    10    10     8   ar
    11    13    15    1
    12    13    16    1
    13    13    12    1
    14     7     8   ar
    15     7    12    1
    16    18    16    1
    17    17    16    1
    18     8     9    1
    19    16    19    1
    20    12    49    2
    21    28    27    1
    22    26    25    1
    23    27    25   ar
    24    27    29   ar
    25    25    24   ar
    26    49    50    1
    27    39    38    1
    28    30    29    1
    29    19    20    1
    30    19    50    1
    31    19    21    1
    32    29    31   ar
    33    37    36    1
    34    23    21    1
    35    50    53    1
    36    47    45    1
    37    24    21    1
    38    24    33   ar
    39    38    36   ar
    40    38    40   ar
    41    21    22    1
    42    36    35   ar
    43    31    33   ar
    44    31    32    1
    45    33    34    1
    46    45    48    1
    47    45    40    1
    48    45    46    1
    49    40    41   ar
    50    35    53    1
    51    35    43   ar
    52    53    52    2
    53    53    51    2
    54    41    43   ar
    55    41    42    1
    56    43    44    1
