@<TRIPOS>MOLECULE
C31 H23 N O4
 59 65 0 0 0
SMALL
GASTEIGER

@<TRIPOS>ATOM
      1 C          10.8142    6.0892    4.0858 C.ar    1  LIG1       -0.0133
      2 C          11.6116    6.8713    4.9206 C.ar    1  LIG1       -0.0110
      3 H          11.3840    7.7522    5.1150 H       1  LIG1        0.0659
      4 C          12.7382    6.3031    5.4453 C.ar    1  LIG1        0.1666
      5 C          14.6356    5.8877    6.5473 C.3     1  LIG1        0.2332
      6 H          14.6352    5.7010    7.4985 H       1  LIG1        0.1166
      7 H          15.5209    6.1906    6.2936 H       1  LIG1        0.1166
      8 C          13.0973    5.0000    5.1873 C.ar    1  LIG1        0.1669
      9 C          12.3515    4.2123    4.3781 C.ar    1  LIG1       -0.0054
     10 H          12.6016    3.3353    4.1957 H       1  LIG1        0.0662
     11 C          11.1829    4.7679    3.8201 C.ar    1  LIG1        0.0256
     12 C          10.4002    3.9119    2.9106 C.2     1  LIG1        0.1642
     13 C           9.2774    4.5597    2.1531 C.3     1  LIG1        0.0189
     14 H           8.6235    3.8830    1.9178 H       1  LIG1        0.0351
     15 H           9.6270    4.9339    1.3298 H       1  LIG1        0.0351
     16 C           8.5895    5.6557    2.9399 C.3     1  LIG1        0.0133
     17 H           8.2400    5.2304    3.7517 H       1  LIG1        0.0369
     18 C           9.6017    6.7306    3.4178 C.3     1  LIG1        0.1067
     19 C           8.8307    7.6305    4.4089 C.2     1  LIG1        0.2356
     20 C           9.6177    9.0077    2.7714 C.ar    1  LIG1        0.0412
     21 C           9.9294   10.1467    2.0640 C.ar    1  LIG1       -0.0400
     22 H           9.6265   10.9831    2.3331 H       1  LIG1        0.0636
     23 C          10.7120    9.9933    0.9371 C.ar    1  LIG1       -0.0600
     24 H          10.9340   10.7425    0.4321 H       1  LIG1        0.0618
     25 C          11.1711    8.7567    0.5415 C.ar    1  LIG1       -0.0613
     26 H          11.6861    8.6818   -0.2280 H       1  LIG1        0.0618
     27 C          10.8733    7.6213    1.2796 C.ar    1  LIG1       -0.0555
     28 H          11.2086    6.7909    1.0273 H       1  LIG1        0.0621
     29 C          10.0729    7.7469    2.3907 C.ar    1  LIG1       -0.0061
     30 C           7.3817    6.1805    2.1847 C.ar    1  LIG1       -0.0422
     31 C           6.1217    6.0006    2.7066 C.ar    1  LIG1       -0.0582
     32 H           6.0267    5.6155    3.5476 H       1  LIG1        0.0620
     33 C           4.9968    6.3815    2.0030 C.ar    1  LIG1       -0.0615
     34 H           4.1541    6.2454    2.3715 H       1  LIG1        0.0618
     35 C           5.1117    6.9524    0.7755 C.ar    1  LIG1       -0.0617
     36 H           4.3510    7.2014    0.3024 H       1  LIG1        0.0618
     37 C           6.3508    7.1592    0.2412 C.ar    1  LIG1       -0.0615
     38 H           6.4357    7.5633   -0.5929 H       1  LIG1        0.0618
     39 C           7.4784    6.7709    0.9373 C.ar    1  LIG1       -0.0582
     40 H           8.3172    6.9081    0.5617 H       1  LIG1        0.0620
     41 C           8.2066   10.0229    4.6191 C.3     1  LIG1        0.0448
     42 H           8.8586   10.7214    4.7862 H       1  LIG1        0.0518
     43 H           7.8701    9.7232    5.4775 H       1  LIG1        0.0518
     44 C           7.0642   10.6000    3.8191 C.ar    1  LIG1       -0.0297
     45 C           6.1251    9.7823    3.2476 C.ar    1  LIG1       -0.0571
     46 H           6.2054    8.8590    3.3268 H       1  LIG1        0.0621
     47 C           5.0592   10.3204    2.5525 C.ar    1  LIG1       -0.0615
     48 H           4.4343    9.7580    2.1555 H       1  LIG1        0.0618
     49 C           4.9181   11.6615    2.4478 C.ar    1  LIG1       -0.0617
     50 H           4.1901   12.0192    1.9922 H       1  LIG1        0.0618
     51 C           5.8344   12.4782    3.0044 C.ar    1  LIG1       -0.0615
     52 H           5.7379   13.4004    2.9284 H       1  LIG1        0.0618
     53 C           6.9184   11.9570    3.6885 C.ar    1  LIG1       -0.0571
     54 H           7.5497   12.5289    4.0613 H       1  LIG1        0.0621
     55 N           8.8697    8.9051    3.9545 N.am    1  LIG1       -0.2658
     56 O          13.6691    6.8871    6.2432 O.3     1  LIG1       -0.4526
     57 O          14.2894    4.7153    5.8166 O.3     1  LIG1       -0.4526
     58 O          10.6675    2.7393    2.7428 O.2     1  LIG1       -0.2920
     59 O           8.2589    7.2534    5.4134 O.2     1  LIG1       -0.2739
@<TRIPOS>BOND
     1    38    37    1
     2    26    25    1
     3    37    35   ar
     4    37    39   ar
     5    36    35    1
     6    24    23    1
     7    25    23   ar
     8    25    27   ar
     9    40    39    1
    10    35    33   ar
    11    23    21   ar
    12    39    30   ar
    13    28    27    1
    14    27    29   ar
    15    15    13    1
    16    14    13    1
    17    50    49    1
    18    33    34    1
    19    33    31   ar
    20    21    22    1
    21    21    20   ar
    22    13    12    1
    23    13    16    1
    24    48    47    1
    25    30    31   ar
    26    30    16    1
    27    29    20   ar
    28    29    18    1
    29    49    47   ar
    30    49    51   ar
    31    47    45   ar
    32    31    32    1
    33    58    12    2
    34    20    55    1
    35    12    11    1
    36    52    51    1
    37    16    18    1
    38    16    17    1
    39    51    53   ar
    40    45    46    1
    41    45    44   ar
    42    18     1    1
    43    18    19    1
    44    53    44   ar
    45    53    54    1
    46    44    41    1
    47    11     1   ar
    48    11     9   ar
    49    55    19   am
    50    55    41    1
    51     1     2   ar
    52    10     9    1
    53     9     8   ar
    54    19    59    2
    55    41    42    1
    56    41    43    1
    57     2     3    1
    58     2     4   ar
    59     8     4   ar
    60     8    57    1
    61     4    56    1
    62    57     5    1
    63    56     5    1
    64     7     5    1
    65     5     6    1
