@<TRIPOS>MOLECULE
C28 H16 F4
 48 51 0 0 0
SMALL
GASTEIGER

@<TRIPOS>ATOM
      1 F           4.5166   12.3600    9.7451 F       1  LIG1       -0.2055
      2 F           9.7899    4.9689   11.0122 F       1  LIG1       -0.2055
      3 F          10.9922    4.1718    1.2106 F       1  LIG1       -0.2055
      4 F           5.5432   11.2687   -0.0629 F       1  LIG1       -0.2055
      5 C           4.8907   11.6727    8.6397 C.ar    1  LIG1        0.1234
      6 C           5.2060   10.3279    8.7617 C.ar    1  LIG1       -0.0261
      7 H           5.1536    9.8907    9.6034 H       1  LIG1        0.0646
      8 C           5.5981    9.6393    7.6284 C.ar    1  LIG1       -0.0540
      9 H           5.8045    8.7145    7.6940 H       1  LIG1        0.0622
     10 C           5.6983   10.2801    6.3820 C.ar    1  LIG1       -0.0229
     11 C           6.2754    9.5681    5.2223 C.3     1  LIG1        0.1061
     12 C           7.0624    8.5052    5.4221 C.1     1  LIG1       -0.0825
     13 C           7.8015    7.5171    5.5681 C.1     1  LIG1       -0.0825
     14 C           8.6100    6.4544    5.7456 C.3     1  LIG1        0.1061
     15 C           9.0083    7.0093    8.1310 C.ar    1  LIG1       -0.0540
     16 H           8.8540    7.9208    7.9138 H       1  LIG1        0.0622
     17 C           9.3022    6.6623    9.4367 C.ar    1  LIG1       -0.0261
     18 H           9.3607    7.3245   10.1147 H       1  LIG1        0.0646
     19 C           9.5087    5.3303    9.7309 C.ar    1  LIG1        0.1234
     20 C           9.4303    4.3374    8.7808 C.ar    1  LIG1       -0.0261
     21 H           9.5632    3.4265    9.0170 H       1  LIG1        0.0646
     22 C           9.1528    4.6963    7.4751 C.ar    1  LIG1       -0.0540
     23 H           9.1098    4.0240    6.8062 H       1  LIG1        0.0622
     24 C           8.9333    6.0342    7.1200 C.ar    1  LIG1       -0.0229
     25 C          10.4088    4.7077    2.3093 C.ar    1  LIG1        0.1234
     26 C          11.0143    4.5247    3.5303 C.ar    1  LIG1       -0.0261
     27 H          11.8352    4.0514    3.6022 H       1  LIG1        0.0646
     28 C          10.3938    5.0511    4.6546 C.ar    1  LIG1       -0.0540
     29 H          10.7900    4.9220    5.5083 H       1  LIG1        0.0622
     30 C           9.1916    5.7716    4.5552 C.ar    1  LIG1       -0.0229
     31 C           8.6254    5.9383    3.2847 C.ar    1  LIG1       -0.0540
     32 H           7.8145    6.4248    3.1964 H       1  LIG1        0.0622
     33 C           9.2235    5.4085    2.1582 C.ar    1  LIG1       -0.0261
     34 H           8.8320    5.5226    1.3001 H       1  LIG1        0.0646
     35 C           4.9425   12.3418    7.4374 C.ar    1  LIG1       -0.0261
     36 H           4.7053   13.2600    7.3807 H       1  LIG1        0.0646
     37 C           5.3507   11.6398    6.3090 C.ar    1  LIG1       -0.0540
     38 H           5.3958   12.0878    5.4724 H       1  LIG1        0.0622
     39 C           6.0628   10.0324    3.8325 C.ar    1  LIG1       -0.0229
     40 C           7.1116    9.9410    2.9034 C.ar    1  LIG1       -0.0540
     41 H           7.9492    9.5882    3.1790 H       1  LIG1        0.0622
     42 C           6.9466   10.3555    1.5932 C.ar    1  LIG1       -0.0261
     43 H           7.6645   10.3100    0.9726 H       1  LIG1        0.0646
     44 C           5.7088   10.8382    1.2123 C.ar    1  LIG1        0.1234
     45 C           4.6384   10.9139    2.0793 C.ar    1  LIG1       -0.0261
     46 H           3.7937   11.2304    1.7821 H       1  LIG1        0.0646
     47 C           4.8235   10.5176    3.3940 C.ar    1  LIG1       -0.0540
     48 H           4.1003   10.5755    4.0069 H       1  LIG1        0.0622
@<TRIPOS>BOND
     1     4    44    1
     2    43    42    1
     3     3    25    1
     4    44    42   ar
     5    44    45   ar
     6    34    33    1
     7    42    40   ar
     8    46    45    1
     9    45    47   ar
    10    33    25   ar
    11    33    31   ar
    12    25    26   ar
    13    40    41    1
    14    40    39   ar
    15    32    31    1
    16    31    30   ar
    17    47    39   ar
    18    47    48    1
    19    26    27    1
    20    26    28   ar
    21    39    11    1
    22    30    28   ar
    23    30    14    1
    24    28    29    1
    25    11    12    1
    26    11    10    1
    27    12    13    3
    28    38    37    1
    29    13    14    1
    30    14    24    1
    31    37    10   ar
    32    37    35   ar
    33    10     8   ar
    34    23    22    1
    35    24    22   ar
    36    24    15   ar
    37    36    35    1
    38    35     5   ar
    39    22    20   ar
    40     8     9    1
    41     8     6   ar
    42    16    15    1
    43    15    17   ar
    44     5     6   ar
    45     5     1    1
    46     6     7    1
    47    20    21    1
    48    20    19   ar
    49    17    19   ar
    50    17    18    1
    51    19     2    1
