@<TRIPOS>MOLECULE
1547784.cif
 40 42 0 0 0
SMALL
GASTEIGER

@<TRIPOS>ATOM
      1 BR          8.2579    6.8719   -1.4348 Br      1  LIG1       -0.0503
      2 O           2.7955    6.2198    5.1439 O.3     1  LIG1       -0.3611
      3 O           3.6442    8.4008    3.3577 O.2     1  LIG1       -0.2920
      4 N           5.0879    3.3987    5.1524 N.1     1  LIG1       -0.1948
      5 N           1.3654    1.9523    6.7290 N.1     1  LIG1       -0.1948
      6 C           3.9719    3.5402    5.2257 C.1     1  LIG1        0.0869
      7 C           2.5171    3.8284    5.3105 C.3     1  LIG1        0.1699
      8 C           2.3552    5.2052    6.0378 C.3     1  LIG1        0.1158
      9 H           1.3956    5.3532    6.2769 H       1  LIG1        0.0673
     10 C           3.8598    7.0204    5.7332 C.3     1  LIG1        0.0918
     11 H           3.5186    7.9456    5.8971 H       1  LIG1        0.0651
     12 C           5.0337    7.0900    4.7847 C.3     1  LIG1        0.0409
     13 H           5.3527    6.1721    4.5953 H       1  LIG1        0.0374
     14 H           5.7734    7.5841    5.2191 H       1  LIG1        0.0374
     15 C           4.6783    7.7762    3.4724 C.2     1  LIG1        0.1659
     16 C           5.5997    7.6076    2.3209 C.ar    1  LIG1        0.0176
     17 C           5.1261    7.8986    1.0368 C.ar    1  LIG1       -0.0502
     18 H           4.2490    8.2469    0.9299 H       1  LIG1        0.0625
     19 C           5.9045    7.6897   -0.0678 C.ar    1  LIG1       -0.0471
     20 H           5.5707    7.8876   -0.9338 H       1  LIG1        0.0629
     21 C           7.1825    7.1882    0.0922 C.ar    1  LIG1        0.0179
     22 C           1.8809    2.7719    6.1172 C.1     1  LIG1        0.0869
     23 C           1.9216    3.8459    3.8905 C.3     1  LIG1       -0.0307
     24 H           2.0343    2.9640    3.4794 H       1  LIG1        0.0256
     25 H           2.3841    4.5204    3.3515 H       1  LIG1        0.0256
     26 H           0.9676    4.0644    3.9405 H       1  LIG1        0.0256
     27 C           3.2149    5.3496    7.2602 C.ar    1  LIG1       -0.0107
     28 C           3.2340    4.5967    8.4346 C.ar    1  LIG1       -0.0557
     29 H           2.5941    3.9112    8.5900 H       1  LIG1        0.0621
     30 C           4.2213    4.8840    9.3703 C.ar    1  LIG1       -0.0614
     31 H           4.2595    4.3841   10.1786 H       1  LIG1        0.0618
     32 C           5.1470    5.8833    9.1468 C.ar    1  LIG1       -0.0614
     33 H           5.8146    6.0534    9.8027 H       1  LIG1        0.0618
     34 C           5.1224    6.6406    7.9921 C.ar    1  LIG1       -0.0558
     35 H           5.7604    7.3275    7.8422 H       1  LIG1        0.0621
     36 C           4.1265    6.3620    7.0506 C.ar    1  LIG1       -0.0127
     37 C           6.9084    7.1421    2.4580 C.ar    1  LIG1       -0.0502
     38 H           7.2564    6.9690    3.3244 H       1  LIG1        0.0625
     39 C           7.7029    6.9287    1.3491 C.ar    1  LIG1       -0.0471
     40 H           8.5917    6.6083    1.4452 H       1  LIG1        0.0629
@<TRIPOS>BOND
     1     1    21    1
     2    20    19    1
     3    19    21   ar
     4    19    17   ar
     5    21    39   ar
     6    18    17    1
     7    17    16   ar
     8    39    40    1
     9    39    37   ar
    10    16    37   ar
    11    16    15    1
    12    37    38    1
    13    25    23    1
    14     3    15    2
    15    15    12    1
    16    24    23    1
    17    23    26    1
    18    23     7    1
    19    13    12    1
    20    12    14    1
    21    12    10    1
    22     2    10    1
    23     2     8    1
    24     4     6    3
    25     6     7    1
    26     7     8    1
    27     7    22    1
    28    10    11    1
    29    10    36    1
    30     8     9    1
    31     8    27    1
    32    22     5    3
    33    36    27   ar
    34    36    34   ar
    35    27    28   ar
    36    35    34    1
    37    34    32   ar
    38    28    29    1
    39    28    30   ar
    40    32    30   ar
    41    32    33    1
    42    30    31    1
