@<TRIPOS>MOLECULE
1547170.cif
 38 40 0 0 0
SMALL
GASTEIGER

@<TRIPOS>ATOM
      1 C          -0.3835    0.6362    6.4845 C.3     1  LIG1        0.0213
      2 C          -0.5188    1.7495    5.5782 C.2     1  LIG1       -0.0749
      3 H          -1.2654    2.3291    5.6704 H       1  LIG1        0.0579
      4 C           0.3810    1.9935    4.6055 C.2     1  LIG1       -0.0604
      5 H           0.2533    2.7230    4.0099 H       1  LIG1        0.0618
      6 C           1.5286    1.1505    4.4744 C.2     1  LIG1       -0.0264
      7 C           1.7297    0.0470    5.3917 C.3     1  LIG1        0.0513
      8 C           3.0141   -0.5839    5.0020 C.ar    1  LIG1       -0.0267
      9 C           3.4969    0.1316    3.8768 C.ar    1  LIG1       -0.0129
     10 C           2.5550    1.2042    3.5532 C.2     1  LIG1       -0.0059
     11 C           4.7036   -0.1984    3.2740 C.ar    1  LIG1       -0.0537
     12 H           5.0183    0.2913    2.5229 H       1  LIG1        0.0624
     13 C           5.4453   -1.2604    3.7889 C.ar    1  LIG1       -0.0612
     14 H           6.2675   -1.5047    3.3814 H       1  LIG1        0.0618
     15 C           4.9877   -1.9624    4.8956 C.ar    1  LIG1       -0.0614
     16 H           5.5041   -2.6816    5.2399 H       1  LIG1        0.0618
     17 C           3.7804   -1.6275    5.5102 C.ar    1  LIG1       -0.0571
     18 H           3.4827   -2.1106    6.2719 H       1  LIG1        0.0621
     19 C           2.6637    2.1199    2.3917 C.ar    1  LIG1       -0.0112
     20 C           2.4007    1.6252    1.1007 C.ar    1  LIG1       -0.0422
     21 C           2.4896    2.4824    0.0132 C.ar    1  LIG1       -0.0553
     22 H           2.3267    2.1388   -0.8572 H       1  LIG1        0.0623
     23 C           2.8098    3.8254    0.1581 C.ar    1  LIG1       -0.0499
     24 C           3.0456    4.3017    1.4382 C.ar    1  LIG1       -0.0553
     25 H           3.2513    5.2216    1.5551 H       1  LIG1        0.0623
     26 C           2.9908    3.4768    2.5570 C.ar    1  LIG1       -0.0422
     27 C           1.9595    0.1986    0.9009 C.3     1  LIG1       -0.0391
     28 H           1.9515   -0.2642    1.7646 H       1  LIG1        0.0278
     29 H           1.0583    0.1868    0.5154 H       1  LIG1        0.0278
     30 H           2.5815   -0.2532    0.2943 H       1  LIG1        0.0278
     31 C           2.8916    4.7351   -1.0449 C.3     1  LIG1       -0.0397
     32 H           2.6949    4.2224   -1.8559 H       1  LIG1        0.0278
     33 H           2.2391    5.4600   -0.9511 H       1  LIG1        0.0278
     34 H           3.7937    5.1133   -1.1079 H       1  LIG1        0.0278
     35 C           3.3359    4.0336    3.9148 C.3     1  LIG1       -0.0391
     36 H           3.2478    3.3285    4.5896 H       1  LIG1        0.0278
     37 H           4.2580    4.3651    3.9071 H       1  LIG1        0.0278
     38 H           2.7258    4.7700    4.1294 H       1  LIG1        0.0278
@<TRIPOS>BOND
     1    32    31    1
     2    34    31    1
     3    31    33    1
     4    31    23    1
     5    22    21    1
     6    21    23   ar
     7    21    20   ar
     8    23    24   ar
     9    30    27    1
    10    29    27    1
    11    27    20    1
    12    27    28    1
    13    20    19   ar
    14    24    25    1
    15    24    26   ar
    16    19    26   ar
    17    19    10    1
    18    12    11    1
    19    26    35    1
    20    11    13   ar
    21    11     9   ar
    22    14    13    1
    23    10     9    1
    24    10     6    2
    25    13    15   ar
    26     9     8   ar
    27    37    35    1
    28    35    38    1
    29    35    36    1
    30     5     4    1
    31     6     4    1
    32     6     7    1
    33     4     2    2
    34    15    16    1
    35    15    17   ar
    36     8     7    1
    37     8    17   ar
    38    17    18    1
    39     2     3    1
    40     2     1    1
