@<TRIPOS>MOLECULE
?
 20 20 0 0 0
SMALL
GASTEIGER

@<TRIPOS>ATOM
      1 B           6.9261   -0.3255    5.2955 B       1  LIG1        0.0000
      2 C           6.8482   -0.1473    6.8452 C.ar    1  LIG1        0.0000
      3 C           6.1392    0.8898    7.4459 C.ar    1  LIG1        0.0000
      4 H           5.7041    1.5073    6.9044 H       1  LIG1        0.0000
      5 C           6.0584    1.0356    8.8247 C.ar    1  LIG1        0.0000
      6 H           5.5594    1.7265    9.1972 H       1  LIG1        0.0000
      7 C           6.7302    0.1387    9.6373 C.ar    1  LIG1        0.0000
      8 C           7.4530   -0.9030    9.0704 C.ar    1  LIG1        0.0000
      9 H           7.9043   -1.5063    9.6157 H       1  LIG1        0.0000
     10 C           7.5002   -1.0412    7.7020 C.ar    1  LIG1        0.0000
     11 H           7.9799   -1.7493    7.3358 H       1  LIG1        0.0000
     12 C           6.0216    1.2608   11.6185 C.3     1  LIG1        0.0000
     13 H           6.4002    2.0975   11.3398 H       1  LIG1        0.0000
     14 H           6.0850    1.1829   12.5730 H       1  LIG1        0.0000
     15 H           5.0995    1.2229   11.3554 H       1  LIG1        0.0000
     16 O           6.7342    0.1893   11.0060 O.3     1  LIG1        0.0000
     17 O           7.2316   -1.5480    4.7911 O.3     1  LIG1        0.0000
     18 H           7.3700   -1.4846    3.9859 H       1  LIG1        0.0000
     19 O           6.6732    0.6960    4.4196 O.3     1  LIG1        0.0000
     20 H           6.6242    1.4036    4.8318 H       1  LIG1        0.0000
@<TRIPOS>BOND
     1    18    17    1
     2    19    20    1
     3    19     1    1
     4    17     1    1
     5     1     2    1
     6     2     3   ar
     7     2    10   ar
     8     4     3    1
     9    11    10    1
    10     3     5   ar
    11    10     8   ar
    12     5     6    1
    13     5     7   ar
    14     8     9    1
    15     8     7   ar
    16     7    16    1
    17    16    12    1
    18    13    12    1
    19    15    12    1
    20    12    14    1
