@<TRIPOS>MOLECULE
?
 67 67 0 0 0
SMALL
GASTEIGER

@<TRIPOS>ATOM
      1 B          -2.4434   13.5097    3.5580 B       1  LIG1        0.0000
      2 C          -1.6924   14.4992    4.6291 C.ar    1  LIG1        0.0000
      3 C          -2.4878   15.3254    5.4394 C.ar    1  LIG1        0.0000
      4 H          -3.4103   15.3102    5.3214 H       1  LIG1        0.0000
      5 C          -1.4015   12.5368    2.7545 C.ar    1  LIG1        0.0000
      6 C           0.2270   15.4375    5.8029 C.ar    1  LIG1        0.0000
      7 C          -0.4209   11.7928    3.4265 C.ar    1  LIG1        0.0000
      8 H          -0.3804   11.8383    4.3550 H       1  LIG1        0.0000
      9 C          -0.5456   11.5294    0.6910 C.ar    1  LIG1        0.0000
     10 C           0.4917   10.9893    2.7539 C.ar    1  LIG1        0.0000
     11 C           0.4552   10.8490    1.3738 C.ar    1  LIG1        0.0000
     12 H           1.0737   10.3212    0.9251 H       1  LIG1        0.0000
     13 C          -1.9542   16.1601    6.4055 C.ar    1  LIG1        0.0000
     14 C          -0.5765   16.2267    6.6074 C.ar    1  LIG1        0.0000
     15 H          -0.2099   16.7818    7.2584 H       1  LIG1        0.0000
     16 C           2.8932   11.5641   -2.4622 C.ar    2  LIG2        0.0000
     17 C          -0.3117   14.6067    4.8228 C.ar    1  LIG1        0.0000
     18 H           0.2624   14.1111    4.2839 H       1  LIG1        0.0000
     19 C           1.7175   15.4946    5.9590 C.3     1  LIG1        0.0000
     20 C          -0.6475   11.4249   -0.7970 C.3     1  LIG1        0.0000
     21 C           1.5803   10.3267    3.5455 C.3     1  LIG1        0.0000
     22 C          -2.8926   16.9900    7.2301 C.3     1  LIG1        0.0000
     23 C           2.4434    9.4528   -3.5580 C.3     2  LIG2        0.0000
     24 H           2.4434    8.5226   -3.5580 H       2  LIG2        0.0000
     25 C           2.9058   10.1383   -2.4422 C.ar    2  LIG2        0.0000
     26 C           3.3373   12.2952   -1.3350 C.ar    2  LIG2        0.0000
     27 H           3.3175   13.2245   -1.3407 H       2  LIG2        0.0000
     28 C           3.3765    9.4839   -1.2667 C.ar    2  LIG2        0.0000
     29 H           3.3768    8.5553   -1.2254 H       2  LIG2        0.0000
     30 C           3.7984   11.6203   -0.2419 C.ar    2  LIG2        0.0000
     31 H           4.1013   12.0999    0.4953 H       2  LIG2        0.0000
     32 C           3.8238   10.2013   -0.2106 C.ar    2  LIG2        0.0000
     33 H           4.1498    9.7617    0.5408 H       2  LIG2        0.0000
     34 C          -1.4439   12.3531    1.3614 C.ar    1  LIG1        0.0000
     35 H          -2.0958   12.7975    0.8710 H       1  LIG1        0.0000
     36 N           2.4434   12.2100   -3.5580 N.pl3   2  LIG2        0.0000
     37 F           2.3199    9.4786    2.8239 F       1  LIG1        0.0000
     38 F           0.1172   10.4644   -1.3162 F       1  LIG1        0.0000
     39 F           2.3163   14.3429    5.7030 F       1  LIG1        0.0000
     40 F           2.4350   11.2273    4.0600 F       1  LIG1        0.0000
     41 F           1.1186    9.6412    4.5975 F       1  LIG1        0.0000
     42 F          -2.2876   17.5772    8.2733 F       1  LIG1        0.0000
     43 F           2.0909   15.8494    7.1911 F       1  LIG1        0.0000
     44 F           2.2739   16.3953    5.1290 F       1  LIG1        0.0000
     45 F          -3.4463   17.9727    6.5234 F       1  LIG1        0.0000
     46 F          -1.8844   11.1608   -1.1898 F       1  LIG1        0.0000
     47 F          -3.9010   16.2725    7.7263 F       1  LIG1        0.0000
     48 F          -0.2647   12.5475   -1.4071 F       1  LIG1        0.0000
     49 C           3.6049   15.6485   -3.4640 C.ar    3  LIG3        0.0000
     50 C           3.6415   17.0774   -3.4362 C.ar    3  LIG3        0.0000
     51 C           2.4434   17.7683   -3.5580 C.3     3  LIG3        0.0000
     52 H           2.4434   18.6985   -3.5580 H       3  LIG3        0.0000
     53 C           6.0110   15.6072   -3.2478 C.ar    3  LIG3        0.0000
     54 H           6.8074   15.1303   -3.1923 H       3  LIG3        0.0000
     55 C           4.8947   17.7392   -3.2976 C.ar    3  LIG3        0.0000
     56 H           4.9260   18.6676   -3.2762 H       3  LIG3        0.0000
     57 C           4.8285   14.9292   -3.3751 C.ar    3  LIG3        0.0000
     58 H           4.8262   14.0003   -3.4043 H       3  LIG3        0.0000
     59 C           6.0411   17.0234   -3.1965 C.ar    3  LIG3        0.0000
     60 H           6.8526   17.4649   -3.0941 H       3  LIG3        0.0000
     61 N           2.4434   14.9635   -3.5580 N.pl3   3  LIG3        0.0000
     62 CL          1.9673   14.5711    1.5127 Cl      4  LIG4        0.0000
     63 CL          4.5416   15.0949    2.7074 Cl      4  LIG4        0.0000
     64 CL          4.0740   15.8516    0.0097 Cl      4  LIG4        0.0000
     65 C           3.3137   15.6572    1.5670 C.3     4  LIG4        0.0000
     66 H           2.9934   16.5347    1.8658 H       4  LIG4        0.0000
     67 H           2.4434   13.0628   -3.5580 H       2  LIG2        0.0000
@<TRIPOS>BOND
     1    67    36    1
     2    36    16    1
     3    61    49    1
     4    24    23    1
     5    23    25    1
     6    51    52    1
     7    51    50    1
     8    49    50   ar
     9    49    57   ar
    10    50    55   ar
    11    58    57    1
    12    57    53   ar
    13    55    56    1
    14    55    59   ar
    15    53    59   ar
    16    53    54    1
    17    59    60    1
    18    16    25   ar
    19    16    26   ar
    20    25    28   ar
    21    48    20    1
    22    27    26    1
    23    26    30   ar
    24    38    20    1
    25    28    29    1
    26    28    32   ar
    27    46    20    1
    28    20     9    1
    29    30    32   ar
    30    30    31    1
    31    32    33    1
    32    64    65    1
    33     9    34   ar
    34     9    11   ar
    35    35    34    1
    36    12    11    1
    37    34     5   ar
    38    11    10   ar
    39    62    65    1
    40    65    66    1
    41    65    63    1
    42    10     7   ar
    43    10    21    1
    44     5     7   ar
    45     5     1    1
    46    37    21    1
    47     7     8    1
    48    21    40    1
    49    21    41    1
    50     1     2    1
    51    18    17    1
    52     2    17   ar
    53     2     3   ar
    54    17     6   ar
    55    44    19    1
    56     4     3    1
    57     3    13   ar
    58    39    19    1
    59     6    19    1
    60     6    14   ar
    61    19    43    1
    62    13    14   ar
    63    13    22    1
    64    45    22    1
    65    14    15    1
    66    22    47    1
    67    22    42    1
