@<TRIPOS>MOLECULE
3,4,5-trifluorophenylboroxine
 22 22 0 0 0
SMALL
GASTEIGER

@<TRIPOS>ATOM
      1 F           4.8161   15.7697    2.7960 F       1  LIG1        0.0000
      2 F           3.1765   14.4340    4.4517 F       1  LIG1        0.0000
      3 F          -0.2226    7.9358    6.2594 F       1  LIG1        0.0000
      4 F          -0.4137    5.2757    6.0344 F       1  LIG1        0.0000
      5 F           1.3015    3.9092    4.5043 F       1  LIG1        0.0000
      6 O           3.8274    9.4050    3.4550 O.3     1  LIG1        0.0000
      7 O           4.8161    7.3402    2.7960 O.3     1  LIG1        0.0000
      8 C           4.8161   14.4317    2.7960 C.2     1  LIG1        0.0000
      9 C           3.9704   13.7296    3.6327 C.2     1  LIG1        0.0000
     10 C           3.9479   12.3550    3.6292 C.3     1  LIG1        0.0000
     11 H           3.3491   11.8924    4.1869 H       1  LIG1        0.0000
     12 C           4.8161   11.6477    2.7960 C.2     1  LIG1        0.0000
     13 C           2.6123    7.2673    4.0715 C.ar    1  LIG1        0.0000
     14 C           1.6875    7.9710    4.8516 C.ar    1  LIG1        0.0000
     15 H           1.7540    8.9047    4.9373 H       1  LIG1        0.0000
     16 C           0.6822    7.2877    5.4905 C.ar    1  LIG1        0.0000
     17 C           0.5594    5.9260    5.3860 C.ar    1  LIG1        0.0000
     18 C           1.4600    5.2380    4.5958 C.ar    1  LIG1        0.0000
     19 C           2.4849    5.8853    3.9474 C.ar    1  LIG1        0.0000
     20 H           3.0956    5.3989    3.4240 H       1  LIG1        0.0000
     21 B           4.8161   10.0984    2.7960 B       1  LIG1        0.0000
     22 B           3.7928    8.0299    3.4049 B       1  LIG1        0.0000
@<TRIPOS>BOND
     1    21    12    2
     2    21     6    1
     3    12    10    1
     4     8     1    1
     5     8     9    2
     6     7    22    1
     7    22     6    1
     8    22    13    1
     9    20    19    1
    10    10     9    1
    11    10    11    1
    12     9     2    1
    13    19    13   ar
    14    19    18   ar
    15    13    14   ar
    16     5    18    1
    17    18    17   ar
    18    14    15    1
    19    14    16   ar
    20    17    16   ar
    21    17     4    1
    22    16     3    1
