@<TRIPOS>MOLECULE
Di-2-chlorophenylboronic B-O-B di-2-phenylacetate
 59 64 0 0 0
SMALL
GASTEIGER

@<TRIPOS>ATOM
      1 CL          5.8529    8.1791    4.2613 Cl      1  LIG1        0.0000
      2 CL          9.8978    2.2677    3.8266 Cl      1  LIG1        0.0000
      3 O           7.5696    5.9607    2.3756 O.3     1  LIG1        0.0000
      4 O           5.6269    5.1384    3.5952 O.3     1  LIG1        0.0000
      5 O           7.6560    4.4259    4.2371 O.3     1  LIG1        0.0000
      6 O           5.9051    4.6105    1.2620 O.3     1  LIG1        0.0000
      7 O           7.7663    3.5758    1.9670 O.3     1  LIG1        0.0000
      8 C           5.2683    6.9999    1.8578 C.ar    1  LIG1        0.0000
      9 C           5.0885    8.1107    2.6837 C.ar    1  LIG1        0.0000
     10 C           4.3015    9.2029    2.3245 C.ar    1  LIG1        0.0000
     11 H           4.1988    9.9373    2.9175 H       1  LIG1        0.0000
     12 C           3.6718    9.2040    1.0926 C.ar    1  LIG1        0.0000
     13 H           3.1309    9.9414    0.8366 H       1  LIG1        0.0000
     14 C           3.8300    8.1326    0.2343 C.ar    1  LIG1        0.0000
     15 H           3.4090    8.1372   -0.6169 H       1  LIG1        0.0000
     16 C           4.6102    7.0476    0.6232 C.ar    1  LIG1        0.0000
     17 H           4.6989    6.3118    0.0282 H       1  LIG1        0.0000
     18 C           9.8073    4.8113    2.8359 C.ar    1  LIG1        0.0000
     19 C          10.6207    3.7295    3.1853 C.ar    1  LIG1        0.0000
     20 C          12.0050    3.7421    3.0441 C.ar    1  LIG1        0.0000
     21 H          12.5231    2.9861    3.2947 H       1  LIG1        0.0000
     22 C          12.6141    4.8738    2.5317 C.ar    1  LIG1        0.0000
     23 H          13.5563    4.8912    2.4111 H       1  LIG1        0.0000
     24 C          11.8550    5.9818    2.1943 C.ar    1  LIG1        0.0000
     25 H          12.2753    6.7632    1.8553 H       1  LIG1        0.0000
     26 C          10.4734    5.9448    2.3535 C.ar    1  LIG1        0.0000
     27 H           9.9649    6.7142    2.1279 H       1  LIG1        0.0000
     28 C           6.4227    4.6643    4.4636 C.3     1  LIG1        0.0000
     29 C           5.8951    4.3857    5.8338 C.3     1  LIG1        0.0000
     30 H           5.7090    5.2470    6.2851 H       1  LIG1        0.0000
     31 H           6.5932    3.9169    6.3556 H       1  LIG1        0.0000
     32 C           4.6358    3.5480    5.8397 C.ar    1  LIG1        0.0000
     33 C           3.4588    4.0860    6.3426 C.ar    1  LIG1        0.0000
     34 H           3.4336    4.9949    6.6165 H       1  LIG1        0.0000
     35 C           2.3230    3.3030    6.4460 C.ar    1  LIG1        0.0000
     36 H           1.5234    3.6743    6.7986 H       1  LIG1        0.0000
     37 C           2.3464    1.9909    6.0405 C.ar    1  LIG1        0.0000
     38 H           1.5689    1.4522    6.1288 H       1  LIG1        0.0000
     39 C           3.4989    1.4548    5.5053 C.ar    1  LIG1        0.0000
     40 H           3.5070    0.5541    5.2053 H       1  LIG1        0.0000
     41 C           4.6531    2.2313    5.4035 C.ar    1  LIG1        0.0000
     42 H           5.4477    1.8604    5.0373 H       1  LIG1        0.0000
     43 C           6.7289    3.6377    1.2394 C.3     1  LIG1        0.0000
     44 C           6.4288    2.4659    0.3630 C.3     1  LIG1        0.0000
     45 H           7.2667    2.1173   -0.0317 H       1  LIG1        0.0000
     46 H           5.8286    2.7413   -0.3748 H       1  LIG1        0.0000
     47 C           5.7636    1.3894    1.1950 C.ar    1  LIG1        0.0000
     48 C           4.3845    1.2118    1.1503 C.ar    1  LIG1        0.0000
     49 H           3.8473    1.7893    0.6204 H       1  LIG1        0.0000
     50 C           3.7952    0.1887    1.8813 C.ar    1  LIG1        0.0000
     51 H           2.8529    0.0682    1.8518 H       1  LIG1        0.0000
     52 C           4.5723   -0.6563    2.6522 C.ar    1  LIG1        0.0000
     53 H           4.1663   -1.3686    3.1314 H       1  LIG1        0.0000
     54 C           5.9360   -0.4667    2.7273 C.ar    1  LIG1        0.0000
     55 H           6.4670   -1.0387    3.2689 H       1  LIG1        0.0000
     56 C           6.5302    0.5610    2.0101 C.ar    1  LIG1        0.0000
     57 H           7.4681    0.7011    2.0751 H       1  LIG1        0.0000
     58 B           6.1815    5.7589    2.2632 B       1  LIG1        0.0000
     59 B           8.2189    4.7979    2.8346 B       1  LIG1        0.0000
@<TRIPOS>BOND
     1    15    14    1
     2    46    44    1
     3    45    44    1
     4    17    16    1
     5    14    16   ar
     6    14    12   ar
     7    44    47    1
     8    44    43    1
     9    49    48    1
    10    16     8   ar
    11    13    12    1
    12    12    10   ar
    13    48    47   ar
    14    48    50   ar
    15    47    56   ar
    16    43     6    1
    17    43     7    1
    18     6    58    1
    19    51    50    1
    20    25    24    1
    21     8    58    1
    22     8     9   ar
    23    50    52   ar
    24     7    59    1
    25    56    57    1
    26    56    54   ar
    27    27    26    1
    28    24    26   ar
    29    24    22   ar
    30    58     3    1
    31    58     4    1
    32    10     9   ar
    33    10    11    1
    34    26    18   ar
    35     3    59    1
    36    23    22    1
    37    22    20   ar
    38    52    54   ar
    39    52    53    1
    40     9     1    1
    41    54    55    1
    42    59    18    1
    43    59     5    1
    44    18    19   ar
    45    20    19   ar
    46    20    21    1
    47    19     2    1
    48     4    28    1
    49     5    28    1
    50    28    29    1
    51    42    41    1
    52    40    39    1
    53    41    39   ar
    54    41    32   ar
    55    39    37   ar
    56    29    32    1
    57    29    30    1
    58    29    31    1
    59    32    33   ar
    60    37    38    1
    61    37    35   ar
    62    33    35   ar
    63    33    34    1
    64    35    36    1
