@<TRIPOS>MOLECULE
?
 136 144 0 0 0
SMALL
GASTEIGER

@<TRIPOS>ATOM
      1 O          -2.9439    2.6130   11.2609 O.3     1  LIG1       -0.3671
      2 O          -0.2990    3.5408   11.0868 O.3     1  LIG1       -0.3838
      3 H          -1.2092    3.7411   10.9871 H       1  LIG1        0.2104
      4 O           1.6441    2.7071   12.9380 O.3     1  LIG1       -0.4586
      5 O           3.0488    1.0849   13.6125 O.2     1  LIG1       -0.2512
      6 O           1.2924   -1.6680   12.0377 O.2     1  LIG1       -0.2512
      7 O           2.8689   -0.8480   10.6541 O.3     1  LIG1       -0.4606
      8 O           4.7451   -0.5245    8.6737 O.3     1  LIG1       -0.3884
      9 H           4.5235   -0.7427    9.4332 H       1  LIG1        0.2102
     10 O          -1.2698   -0.0572    8.7125 O.3     1  LIG1       -0.3881
     11 H          -2.0890   -0.0815    8.7427 H       1  LIG1        0.2102
     12 C          -0.9872    1.1924   10.6976 C.3     1  LIG1        0.0494
     13 H          -0.6618    0.3115   10.9792 H       1  LIG1        0.0384
     14 C          -2.4521    1.2433   11.1055 C.3     1  LIG1        0.0940
     15 H          -3.0635    0.5258   10.8379 H       1  LIG1        0.0627
     16 C          -2.5579    1.8435   12.4235 C.3     1  LIG1        0.0935
     17 H          -3.2520    1.5262   13.0385 H       1  LIG1        0.0628
     18 C          -1.1887    2.1700   12.9651 C.3     1  LIG1        0.0264
     19 C          -0.3095    2.2193   11.6477 C.3     1  LIG1        0.1181
     20 C           1.1381    1.8221   11.8785 C.3     1  LIG1        0.1332
     21 H           1.1672    0.8952   12.1969 H       1  LIG1        0.0763
     22 C           2.0732    1.9636   10.6901 C.3     1  LIG1       -0.0034
     23 H           2.9763    1.8272   11.0170 H       1  LIG1        0.0308
     24 H           2.0196    2.8841   10.3902 H       1  LIG1        0.0308
     25 C           1.8971    1.0704    9.4519 C.3     1  LIG1        0.0196
     26 C           0.6424    1.4335    8.5949 C.3     1  LIG1       -0.0027
     27 H           0.7214    2.3937    8.4144 H       1  LIG1        0.0335
     28 C          -0.8106    1.2350    9.1518 C.3     1  LIG1        0.0747
     29 C           0.7595    0.7428    7.2083 C.3     1  LIG1       -0.0465
     30 H          -0.1014    0.7861    6.7630 H       1  LIG1        0.0269
     31 H           1.3957    1.2356    6.6655 H       1  LIG1        0.0269
     32 C           1.2031   -0.7193    7.2847 C.3     1  LIG1       -0.0438
     33 H           1.4750   -1.0122    6.4009 H       1  LIG1        0.0270
     34 H           0.4484   -1.2633    7.5589 H       1  LIG1        0.0270
     35 C           2.3687   -0.9483    8.2694 C.3     1  LIG1        0.0253
     36 H           2.6244   -1.8942    8.2990 H       1  LIG1        0.0364
     37 C           1.8960   -0.4606    9.6449 C.3     1  LIG1        0.1146
     38 H           1.0004   -0.7966    9.8590 H       1  LIG1        0.0743
     39 C           3.1852    1.2962    8.5794 C.3     1  LIG1       -0.0144
     40 H           3.0048    1.9468    7.8832 H       1  LIG1        0.0299
     41 H           3.9075    1.6326    9.1327 H       1  LIG1        0.0299
     42 C           3.5862   -0.0538    7.9508 C.3     1  LIG1        0.0701
     43 C           3.9941    0.0301    6.4870 C.3     1  LIG1       -0.0357
     44 H           3.2510    0.3405    5.9651 H       1  LIG1        0.0257
     45 H           4.2607   -0.8387    6.1780 H       1  LIG1        0.0257
     46 H           4.7279    0.6415    6.3949 H       1  LIG1        0.0257
     47 C          -1.2074    3.4751   13.7703 C.3     1  LIG1       -0.0546
     48 H          -0.3258    3.6583   14.1030 H       1  LIG1        0.0237
     49 H          -1.8161    3.3875   14.5069 H       1  LIG1        0.0237
     50 H          -1.4918    4.1959   13.2037 H       1  LIG1        0.0237
     51 C          -0.8040    0.9900   13.8722 C.3     1  LIG1       -0.0546
     52 H           0.0661    1.1449   14.2463 H       1  LIG1        0.0237
     53 H          -0.7916    0.1801   13.3569 H       1  LIG1        0.0237
     54 H          -1.4477    0.9070   14.5805 H       1  LIG1        0.0237
     55 C          -1.6855    2.3117    8.4918 C.3     1  LIG1       -0.0354
     56 H          -1.3925    3.1811    8.7766 H       1  LIG1        0.0257
     57 H          -2.6015    2.1821    8.7507 H       1  LIG1        0.0257
     58 H          -1.6101    2.2439    7.5370 H       1  LIG1        0.0257
     59 C           2.5706    2.1820   13.7594 C.2     1  LIG1        0.3043
     60 C           2.9476    3.1190   14.8672 C.3     1  LIG1        0.0332
     61 H           2.4405    3.9304   14.7875 H       1  LIG1        0.0342
     62 H           3.8845    3.3205   14.8113 H       1  LIG1        0.0342
     63 H           2.7597    2.7066   15.7127 H       1  LIG1        0.0342
     64 C           2.4484   -1.4570   11.7675 C.2     1  LIG1        0.3042
     65 C           3.6218   -1.8209   12.6286 C.3     1  LIG1        0.0332
     66 H           4.4337   -1.5524   12.1929 H       1  LIG1        0.0342
     67 H           3.6328   -2.7710   12.7699 H       1  LIG1        0.0342
     68 H           3.5490   -1.3724   13.4743 H       1  LIG1        0.0342
     69 O           5.8309    3.9217    1.4081 O.3     2  LIG2       -0.3671
     70 O           3.1559    3.0354    1.2362 O.3     2  LIG2       -0.3838
     71 H           4.0246    2.8249    1.0824 H       2  LIG2        0.2104
     72 O           1.1933    3.9300    3.0411 O.3     2  LIG2       -0.4586
     73 O          -0.0537    5.6428    3.7912 O.2     2  LIG2       -0.2512
     74 O           4.1930    6.5922   -1.1875 O.3     2  LIG2       -0.3881
     75 H           5.0120    6.6147   -1.1560 H       2  LIG2        0.2102
     76 O           1.7761    8.3160    1.9947 O.2     2  LIG2       -0.2512
     77 O           0.1239    7.4941    0.6926 O.3     2  LIG2       -0.4606
     78 O          -1.7956    7.1256   -1.2515 O.3     2  LIG2       -0.3884
     79 H          -1.5608    7.3639   -0.5034 H       2  LIG2        0.2102
     80 C           3.8955    5.3651    0.8150 C.3     2  LIG2        0.0494
     81 H           3.5831    6.2545    1.0824 H       2  LIG2        0.0384
     82 C           5.3542    5.2946    1.2336 C.3     2  LIG2        0.0940
     83 H           5.9780    5.9982    0.9570 H       2  LIG2        0.0627
     84 C           5.4556    4.7148    2.5603 C.3     2  LIG2        0.0935
     85 H           6.1520    5.0333    3.1716 H       2  LIG2        0.0628
     86 C           4.0717    4.4093    3.1025 C.3     2  LIG2        0.0264
     87 C           3.1983    4.3609    1.7778 C.3     2  LIG2        0.1181
     88 C           1.7610    4.8015    1.9953 C.3     2  LIG2        0.1332
     89 H           1.7549    5.7287    2.3140 H       2  LIG2        0.0763
     90 C           0.8262    4.6786    0.8070 C.3     2  LIG2       -0.0034
     91 H          -0.0696    4.8650    1.1302 H       2  LIG2        0.0308
     92 H           0.8365    3.7477    0.5332 H       2  LIG2        0.0308
     93 C           1.0295    5.5222   -0.4624 C.3     2  LIG2        0.0196
     94 C           2.2739    5.1010   -1.2955 C.3     2  LIG2       -0.0027
     95 H           2.1797    4.1368   -1.4386 H       2  LIG2        0.0335
     96 C           3.7286    5.3042   -0.7288 C.3     2  LIG2        0.0747
     97 C           2.1732    5.7439   -2.7060 C.3     2  LIG2       -0.0465
     98 H           3.0383    5.6800   -3.1417 H       2  LIG2        0.0269
     99 H           1.5385    5.2357   -3.2353 H       2  LIG2        0.0269
    100 C           1.7368    7.2117   -2.6881 C.3     2  LIG2       -0.0438
    101 H           1.4582    7.4665   -3.5815 H       2  LIG2        0.0270
    102 H           2.4991    7.7622   -2.4493 H       2  LIG2        0.0270
    103 C           0.5851    7.5067   -1.7056 C.3     2  LIG2        0.0253
    104 H           0.3531    8.4589   -1.7072 H       2  LIG2        0.0364
    105 C           1.0654    7.0578   -0.3215 C.3     2  LIG2        0.1146
    106 H           1.9711    7.3810   -0.1333 H       2  LIG2        0.0743
    107 C          -0.2623    5.2911   -1.3220 C.3     2  LIG2       -0.0144
    108 H          -0.0925    4.6219   -2.0036 H       2  LIG2        0.0299
    109 H          -0.9857    4.9755   -0.7581 H       2  LIG2        0.0299
    110 C          -0.6512    6.6319   -1.9809 C.3     2  LIG2        0.0701
    111 C          -1.0724    6.5133   -3.4412 C.3     2  LIG2       -0.0357
    112 H          -0.3350    6.1874   -3.9615 H       2  LIG2        0.0257
    113 H          -1.3388    7.3758   -3.7685 H       2  LIG2        0.0257
    114 H          -1.8101    5.9022   -3.5138 H       2  LIG2        0.0257
    115 C           4.0479    3.1208    3.9197 C.3     2  LIG2       -0.0546
    116 H           3.1586    2.9642    4.2440 H       2  LIG2        0.0237
    117 H           4.6503    3.2022    4.6619 H       2  LIG2        0.0237
    118 H           4.3190    2.3859    3.3666 H       2  LIG2        0.0237
    119 C           3.7147    5.6118    3.9939 C.3     2  LIG2       -0.0546
    120 H           2.8412    5.4829    4.3694 H       2  LIG2        0.0237
    121 H           3.7220    6.4135    3.4661 H       2  LIG2        0.0237
    122 H           4.3599    5.6879    4.7017 H       2  LIG2        0.0237
    123 C           4.6003    4.2107   -1.3705 C.3     2  LIG2       -0.0354
    124 H           4.3014    3.3481   -1.0724 H       2  LIG2        0.0257
    125 H           5.5159    4.3392   -1.1122 H       2  LIG2        0.0257
    126 H           4.5266    4.2630   -2.3260 H       2  LIG2        0.0257
    127 C           0.2837    4.4876    3.8509 C.2     2  LIG2        0.3043
    128 C          -0.2896    3.5065    4.8208 C.3     2  LIG2        0.0332
    129 H           0.1258    2.6501    4.6937 H       2  LIG2        0.0342
    130 H          -1.2353    3.4283    4.6758 H       2  LIG2        0.0342
    131 H          -0.1274    3.8108    5.7164 H       2  LIG2        0.0342
    132 C           0.6044    8.1086    1.7858 C.2     2  LIG2        0.3042
    133 C          -0.5082    8.4620    2.7104 C.3     2  LIG2        0.0332
    134 H          -1.3453    8.2000    2.3200 H       2  LIG2        0.0342
    135 H          -0.5094    9.4093    2.8632 H       2  LIG2        0.0342
    136 H          -0.3883    8.0041    3.5456 H       2  LIG2        0.0342
@<TRIPOS>BOND
     1   112   111    1
     2   113   111    1
     3   101   100    1
     4   114   111    1
     5   111   110    1
     6    99    97    1
     7    98    97    1
     8    97   100    1
     9    97    94    1
    10   100   102    1
    11   100   103    1
    12   126   123    1
    13   108   107    1
    14   110   103    1
    15   110   107    1
    16   110    78    1
    17   104   103    1
    18   103   105    1
    19    95    94    1
    20   123   125    1
    21   123   124    1
    22   123    96    1
    23   107   109    1
    24   107    93    1
    25    94    96    1
    26    94    93    1
    27    78    79    1
    28    74    75    1
    29    74    96    1
    30    96    80    1
    31    93   105    1
    32    93    90    1
    33   105   106    1
    34   105    77    1
    35    92    90    1
    36    77   132    1
    37    90    91    1
    38    90    88    1
    39    80    81    1
    40    80    82    1
    41    80    87    1
    42    83    82    1
    43    71    70    1
    44    82    69    1
    45    82    84    1
    46    70    87    1
    47    69    84    1
    48    87    88    1
    49    87    86    1
    50   132    76    2
    51   132   133    1
    52    88    89    1
    53    88    72    1
    54   134   133    1
    55    84    86    1
    56    84    85    1
    57   133   135    1
    58   133   136    1
    59    72   127    1
    60    86   115    1
    61    86   119    1
    62   118   115    1
    63   121   119    1
    64    73   127    2
    65   127   128    1
    66   115   116    1
    67   115   117    1
    68   119   120    1
    69   119   122    1
    70   130   128    1
    71   129   128    1
    72   128   131    1
    73    44    43    1
    74    45    43    1
    75    46    43    1
    76    33    32    1
    77    43    42    1
    78    31    29    1
    79    30    29    1
    80    29    32    1
    81    29    26    1
    82    32    34    1
    83    32    35    1
    84    58    55    1
    85    40    39    1
    86    42    35    1
    87    42    39    1
    88    42     8    1
    89    35    36    1
    90    35    37    1
    91    27    26    1
    92    55    57    1
    93    55    56    1
    94    55    28    1
    95    39    41    1
    96    39    25    1
    97    26    28    1
    98    26    25    1
    99     8     9    1
   100    10    11    1
   101    10    28    1
   102    28    12    1
   103    25    37    1
   104    25    22    1
   105    37    38    1
   106    37     7    1
   107    24    22    1
   108     7    64    1
   109    22    23    1
   110    22    20    1
   111    12    13    1
   112    12    14    1
   113    12    19    1
   114    15    14    1
   115     3     2    1
   116     2    19    1
   117    14     1    1
   118    14    16    1
   119     1    16    1
   120    19    20    1
   121    19    18    1
   122    64     6    2
   123    64    65    1
   124    20    21    1
   125    20     4    1
   126    66    65    1
   127    16    18    1
   128    16    17    1
   129    65    67    1
   130    65    68    1
   131     4    59    1
   132    18    47    1
   133    18    51    1
   134    50    47    1
   135    53    51    1
   136     5    59    2
   137    59    60    1
   138    47    48    1
   139    47    49    1
   140    51    52    1
   141    51    54    1
   142    61    60    1
   143    62    60    1
   144    60    63    1
