@<TRIPOS>MOLECULE
C42 H62 B2 N4 S2, C6 H6
 62 62 0 0 0
SMALL
GASTEIGER

@<TRIPOS>ATOM
      1 S           4.6727    3.1222    7.4043 S.3     1  LIG1        0.0000
      2 N           5.8486    3.6691    4.0245 N.pl3   1  LIG1        0.0000
      3 N           2.4686    1.8043    4.4467 N.1     1  LIG1        0.0000
      4 C           6.0406    2.7433    4.9305 C.3     1  LIG1        0.0000
      5 C           7.1086    4.4676    3.6808 C.3     1  LIG1        0.0000
      6 C           7.1778    5.6938    4.5895 C.3     1  LIG1        0.0000
      7 H           8.0683    6.0976    4.5258 H       1  LIG1        0.0000
      8 H           7.0077    5.4233    5.5153 H       1  LIG1        0.0000
      9 H           6.5022    6.3454    4.3092 H       1  LIG1        0.0000
     10 C           7.1494    4.8986    2.2248 C.3     1  LIG1        0.0000
     11 H           7.9827    5.3853    2.0513 H       1  LIG1        0.0000
     12 H           6.3853    5.4828    2.0357 H       1  LIG1        0.0000
     13 H           7.1066    4.1078    1.6478 H       1  LIG1        0.0000
     14 C           8.1684    3.4224    4.0309 C.3     1  LIG1        0.0000
     15 H           8.9886    3.8614    4.3701 H       1  LIG1        0.0000
     16 H           8.4041    2.8869    3.2319 H       1  LIG1        0.0000
     17 C           7.5478    2.5235    5.1189 C.3     1  LIG1        0.0000
     18 C           8.0644    2.8869    6.5109 C.3     1  LIG1        0.0000
     19 H           9.0426    2.8227    6.5232 H       1  LIG1        0.0000
     20 H           7.6881    2.2684    7.1716 H       1  LIG1        0.0000
     21 H           7.7945    3.8031    6.7299 H       1  LIG1        0.0000
     22 C           7.8909    1.0484    4.8176 C.3     1  LIG1        0.0000
     23 H           8.8631    0.9479    4.7438 H       1  LIG1        0.0000
     24 H           7.4696    0.7806    3.9737 H       1  LIG1        0.0000
     25 H           7.5587    0.4810    5.5436 H       1  LIG1        0.0000
     26 C           4.6196    3.8678    3.2536 C.ar    1  LIG1        0.0000
     27 C           4.4708    3.0450    2.1242 C.ar    1  LIG1        0.0000
     28 C           5.4648    1.9541    1.7292 C.3     1  LIG1        0.0000
     29 H           6.3287    2.1440    2.1957 H       1  LIG1        0.0000
     30 C           4.9684    0.5786    2.1999 C.3     1  LIG1        0.0000
     31 H           5.5913   -0.1149    1.8955 H       1  LIG1        0.0000
     32 H           4.0798    0.4061    1.8248 H       1  LIG1        0.0000
     33 H           4.9187    0.5668    3.1781 H       1  LIG1        0.0000
     34 C           5.7386    1.9394    0.2244 C.3     1  LIG1        0.0000
     35 H           6.4768    1.3228    0.0326 H       1  LIG1        0.0000
     36 H           5.9819    2.8414   -0.0722 H       1  LIG1        0.0000
     37 H           4.9344    1.6438   -0.2520 H       1  LIG1        0.0000
     38 C           3.3201    3.2078    1.3599 C.ar    1  LIG1        0.0000
     39 H           3.1908    2.6656    0.5903 H       1  LIG1        0.0000
     40 C           2.3629    4.1438    1.6978 C.ar    1  LIG1        0.0000
     41 H           1.5799    4.2336    1.1679 H       1  LIG1        0.0000
     42 C           2.5431    4.9470    2.8008 C.ar    1  LIG1        0.0000
     43 H           1.8848    5.5988    3.0111 H       1  LIG1        0.0000
     44 C           3.6674    4.8281    3.6186 C.ar    1  LIG1        0.0000
     45 C           3.7701    5.7007    4.8570 C.3     1  LIG1        0.0000
     46 H           4.5945    5.4364    5.3568 H       1  LIG1        0.0000
     47 C           3.9046    7.1748    4.4564 C.3     1  LIG1        0.0000
     48 H           4.2042    7.6977    5.2294 H       1  LIG1        0.0000
     49 H           3.0369    7.5116    4.1506 H       1  LIG1        0.0000
     50 H           4.5605    7.2585    3.7330 H       1  LIG1        0.0000
     51 C           2.5666    5.5059    5.7849 C.3     1  LIG1        0.0000
     52 H           2.7155    5.9960    6.6195 H       1  LIG1        0.0000
     53 H           2.4568    4.5519    5.9811 H       1  LIG1        0.0000
     54 H           1.7583    5.8440    5.3469 H       1  LIG1        0.0000
     55 C           3.4738    1.9393    4.9805 C.1     1  LIG1        0.0000
     56 C           0.6429    1.1973   -0.2336 C.2     1  LIG1        0.0000
     57 H           1.0838    2.0218   -0.4020 H       1  LIG1        0.0000
     58 C           0.5354    0.7287    1.0600 C.2     1  LIG1        0.0000
     59 H           0.9007    1.2246    1.7837 H       1  LIG1        0.0000
     60 C          -0.1117   -0.4722    1.2896 C.3     1  LIG1        0.0000
     61 H          -0.1931   -0.8024    2.1758 H       1  LIG1        0.0000
     62 B           4.8398    2.0454    5.7999 B       1  LIG1        0.0000
@<TRIPOS>BOND
     1    57    56    1
     2    37    34    1
     3    56    58    2
     4    36    34    1
     5    35    34    1
     6    34    28    1
     7    39    38    1
     8    58    60    1
     9    58    59    1
    10    41    40    1
    11    60    61    1
    12    38    40   ar
    13    38    27   ar
    14    13    10    1
    15    40    42   ar
    16    28    27    1
    17    28    29    1
    18    28    30    1
    19    32    30    1
    20    31    30    1
    21    12    10    1
    22    11    10    1
    23    27    26   ar
    24    30    33    1
    25    10     5    1
    26    42    43    1
    27    42    44   ar
    28    16    14    1
    29    26    44   ar
    30    26     2    1
    31    44    45    1
    32     5     2    1
    33     5    14    1
    34     5     6    1
    35    50    47    1
    36    24    22    1
    37     2     4    1
    38    14    15    1
    39    14    17    1
    40    49    47    1
    41     9     6    1
    42     3    55    3
    43    47    45    1
    44    47    48    1
    45     7     6    1
    46     6     8    1
    47    23    22    1
    48    22    17    1
    49    22    25    1
    50    45    46    1
    51    45    51    1
    52     4    17    1
    53     4    62    1
    54    55    62    1
    55    17    18    1
    56    54    51    1
    57    51    53    1
    58    51    52    1
    59    62     1    1
    60    18    19    1
    61    18    21    1
    62    18    20    1
