@<TRIPOS>MOLECULE
C25 H22 F3 N O3 S
 55 58 0 0 0
SMALL
GASTEIGER

@<TRIPOS>ATOM
      1 S          16.3772    5.3843   11.0537 S.O2    1  LIG1        0.0750
      2 F          16.8325    3.4731   15.1167 F       1  LIG1       -0.1676
      3 F          16.5451    4.5411   16.9600 F       1  LIG1       -0.1676
      4 F          18.4103    4.6982   15.9173 F       1  LIG1       -0.1676
      5 O          16.8083    6.9329   15.7643 O.3     1  LIG1       -0.3584
      6 O          16.4015    4.0801   11.6414 O.2     1  LIG1       -0.1498
      7 O          17.5682    5.9589   10.4941 O.2     1  LIG1       -0.1498
      8 N          15.8937    6.4308   12.2226 N.pl3   1  LIG1       -0.1989
      9 C          14.8371    6.0599   13.1357 C.ar    1  LIG1        0.0575
     10 C          13.5045    6.1462   12.7275 C.ar    1  LIG1       -0.0387
     11 C          12.4866    5.8268   13.6185 C.ar    1  LIG1       -0.0599
     12 C          12.7952    5.4479   14.9130 C.ar    1  LIG1       -0.0613
     13 C          14.1169    5.4061   15.3356 C.ar    1  LIG1       -0.0540
     14 C          15.1567    5.7104   14.4509 C.ar    1  LIG1        0.0123
     15 C          16.5944    5.8058   14.9225 C.3     1  LIG1        0.1803
     16 C          17.0790    4.6222   15.7387 C.3     1  LIG1        0.4198
     17 C          16.7343    8.2026   15.0834 C.3     1  LIG1        0.0742
     18 C          17.8132    8.3798   14.0394 C.2     1  LIG1       -0.0171
     19 C          17.5766    8.2006   12.7365 C.2     1  LIG1       -0.0592
     20 C          16.2487    7.8712   12.1009 C.3     1  LIG1        0.0537
     21 C          19.1734    8.7402   14.5315 C.ar    1  LIG1       -0.0199
     22 C          19.5951    8.3524   15.8077 C.ar    1  LIG1       -0.0543
     23 C          20.8645    8.6931   16.2656 C.ar    1  LIG1       -0.0612
     24 C          21.7254    9.4230   15.4684 C.ar    1  LIG1       -0.0617
     25 C          21.3143    9.8305   14.2117 C.ar    1  LIG1       -0.0612
     26 C          20.0442    9.5021   13.7454 C.ar    1  LIG1       -0.0543
     27 C          15.1185    5.4085    9.8139 C.ar    1  LIG1        0.1087
     28 C          15.1162    6.4053    8.8451 C.ar    1  LIG1       -0.0348
     29 C          14.0516    6.4978    7.9637 C.ar    1  LIG1       -0.0570
     30 C          12.9791    5.6139    8.0393 C.ar    1  LIG1       -0.0503
     31 C          13.0150    4.6012    8.9956 C.ar    1  LIG1       -0.0570
     32 C          14.0772    4.4892    9.8824 C.ar    1  LIG1       -0.0348
     33 C          11.7740    5.7786    7.1505 C.3     1  LIG1       -0.0397
     34 H          13.2941    6.4223   11.8432 H       1  LIG1        0.0637
     35 H          11.5789    5.8685   13.3396 H       1  LIG1        0.0618
     36 H          12.0985    5.2152   15.5158 H       1  LIG1        0.0618
     37 H          14.3165    5.1686   16.2341 H       1  LIG1        0.0622
     38 H          17.1835    5.8971   14.1195 H       1  LIG1        0.0738
     39 H          16.8102    8.9299   15.7511 H       1  LIG1        0.0610
     40 H          15.8483    8.2827   14.6481 H       1  LIG1        0.0610
     41 H          18.3202    8.2902   12.1506 H       1  LIG1        0.0592
     42 H          15.5423    8.4151   12.5299 H       1  LIG1        0.0526
     43 H          16.2805    8.1156   11.1424 H       1  LIG1        0.0526
     44 H          19.0113    7.8522   16.3659 H       1  LIG1        0.0624
     45 H          21.1418    8.4211   17.1334 H       1  LIG1        0.0618
     46 H          22.5946    9.6433   15.7810 H       1  LIG1        0.0618
     47 H          21.9018   10.3372   13.6646 H       1  LIG1        0.0618
     48 H          19.7663    9.7983   12.8865 H       1  LIG1        0.0624
     49 H          15.8399    7.0184    8.7871 H       1  LIG1        0.0637
     50 H          14.0541    7.1749    7.2977 H       1  LIG1        0.0621
     51 H          12.3003    3.9765    9.0418 H       1  LIG1        0.0621
     52 H          14.0928    3.7929   10.5277 H       1  LIG1        0.0637
     53 H          11.1266    5.0692    7.3434 H       1  LIG1        0.0278
     54 H          11.3620    6.6526    7.3170 H       1  LIG1        0.0278
     55 H          12.0498    5.7225    6.2123 H       1  LIG1        0.0278
@<TRIPOS>BOND
     1    55    33    1
     2    33    54    1
     3    33    53    1
     4    33    30    1
     5    50    29    1
     6    29    30   ar
     7    29    28   ar
     8    30    31   ar
     9    49    28    1
    10    28    27   ar
    11    31    51    1
    12    31    32   ar
    13    27    32   ar
    14    27     1    1
    15    32    52    1
    16     7     1    2
    17     1     6    2
    18     1     8    1
    19    43    20    1
    20    34    10    1
    21    20     8    1
    22    20    42    1
    23    20    19    1
    24    41    19    1
    25     8     9    1
    26    10     9   ar
    27    10    11   ar
    28    19    18    2
    29    48    26    1
    30     9    14   ar
    31    35    11    1
    32    11    12   ar
    33    47    25    1
    34    26    25   ar
    35    26    21   ar
    36    18    21    1
    37    18    17    1
    38    38    15    1
    39    25    24   ar
    40    14    15    1
    41    14    13   ar
    42    21    22   ar
    43    40    17    1
    44    12    13   ar
    45    12    36    1
    46    15    16    1
    47    15     5    1
    48    17    39    1
    49    17     5    1
    50     2    16    1
    51    13    37    1
    52    24    46    1
    53    24    23   ar
    54    16     4    1
    55    16     3    1
    56    22    23   ar
    57    22    44    1
    58    23    45    1
