@<TRIPOS>MOLECULE
C38 H48 B2 N2 O2
 184 192 0 0 0
SMALL
GASTEIGER

@<TRIPOS>ATOM
      1 C           3.0328    5.3551   11.5347 C.ar    1  LIG1        0.0000
      2 B           2.4025    4.7744   10.1958 B       1  LIG1        0.0000
      3 N           1.7560    5.9461    9.3453 N.pl3   1  LIG1        0.0000
      4 C           0.4953    5.8567    8.8722 C.2     1  LIG1        0.0000
      5 H          -0.0074    5.0709    9.0513 H       1  LIG1        0.0000
      6 C          -0.0847    6.8635    8.1414 C.2     1  LIG1        0.0000
      7 H          -0.9701    6.7664    7.8086 H       1  LIG1        0.0000
      8 C           0.6305    8.0147    7.8950 C.3     1  LIG1        0.0000
      9 H           0.2489    8.7188    7.3843 H       1  LIG1        0.0000
     10 C           1.9041    8.1313    8.3986 C.2     1  LIG1        0.0000
     11 H           2.4079    8.9232    8.2490 H       1  LIG1        0.0000
     12 C           2.4423    7.0940    9.1199 C.2     1  LIG1        0.0000
     13 H           3.3200    7.1830    9.4716 H       1  LIG1        0.0000
     14 C           2.2857    3.4535    9.6327 C.2     1  LIG1        0.0000
     15 C           1.7772    3.1895    8.2451 C.ar    1  LIG1        0.0000
     16 N           2.6555    2.2222   10.3711 N.pl3   1  LIG1        0.0000
     17 C           3.7519    1.4321    9.8336 C.ar    1  LIG1        0.0000
     18 B           2.0338    1.8142   11.5616 B       1  LIG1        0.0000
     19 O           1.0258    2.4825   12.2234 O.3     1  LIG1        0.0000
     20 O           2.3861    0.6288   12.1991 O.3     1  LIG1        0.0000
     21 C           2.1986    5.7133   12.6065 C.ar    1  LIG1        0.0000
     22 C           0.6956    5.6383   12.4736 C.3     1  LIG1        0.0000
     23 H           0.3731    6.4121   11.9632 H       1  LIG1        0.0000
     24 H           0.2886    5.6412   13.3649 H       1  LIG1        0.0000
     25 H           0.4494    4.8139   12.0054 H       1  LIG1        0.0000
     26 C           2.7539    6.2093   13.7896 C.ar    1  LIG1        0.0000
     27 H           2.1815    6.4121   14.5191 H       1  LIG1        0.0000
     28 C           4.1300    6.4160   13.9283 C.ar    1  LIG1        0.0000
     29 C           4.6977    6.9852   15.2101 C.3     1  LIG1        0.0000
     30 H           4.9419    7.9246   15.0702 H       1  LIG1        0.0000
     31 H           5.4926    6.4763   15.4703 H       1  LIG1        0.0000
     32 H           4.0243    6.9241   15.9208 H       1  LIG1        0.0000
     33 C           4.9371    6.1117   12.8555 C.ar    1  LIG1        0.0000
     34 H           5.8740    6.2564   12.9265 H       1  LIG1        0.0000
     35 C           4.4208    5.5998   11.6708 C.ar    1  LIG1        0.0000
     36 C           5.3747    5.3650   10.5242 C.3     1  LIG1        0.0000
     37 H           5.4311    6.1746    9.9744 H       1  LIG1        0.0000
     38 H           5.0507    4.6193    9.9764 H       1  LIG1        0.0000
     39 H           6.2623    5.1488   10.8773 H       1  LIG1        0.0000
     40 C           0.4667    2.7268    8.0308 C.ar    1  LIG1        0.0000
     41 C          -0.4652    2.4288    9.1756 C.3     1  LIG1        0.0000
     42 H          -1.3893    2.5909    8.8945 H       1  LIG1        0.0000
     43 H          -0.2475    3.0094    9.9342 H       1  LIG1        0.0000
     44 H          -0.3656    1.4911    9.4415 H       1  LIG1        0.0000
     45 C           0.0160    2.5047    6.7255 C.ar    1  LIG1        0.0000
     46 H          -0.8775    2.2133    6.5879 H       1  LIG1        0.0000
     47 C           0.8351    2.6986    5.6283 C.ar    1  LIG1        0.0000
     48 C           0.3625    2.3538    4.2297 C.3     1  LIG1        0.0000
     49 H           0.6055    3.0776    3.6157 H       1  LIG1        0.0000
     50 H          -0.6103    2.2405    4.2331 H       1  LIG1        0.0000
     51 H           0.7864    1.5203    3.9375 H       1  LIG1        0.0000
     52 C           2.1126    3.1792    5.8469 C.ar    1  LIG1        0.0000
     53 H           2.6767    3.3404    5.0998 H       1  LIG1        0.0000
     54 C           2.5988    3.4342    7.1313 C.ar    1  LIG1        0.0000
     55 C           4.0063    3.9498    7.2779 C.3     1  LIG1        0.0000
     56 H           3.9875    4.8334    7.7000 H       1  LIG1        0.0000
     57 H           4.4223    4.0197    6.3928 H       1  LIG1        0.0000
     58 H           4.5235    3.3326    7.8347 H       1  LIG1        0.0000
     59 C           3.5415    0.4826    8.8295 C.ar    1  LIG1        0.0000
     60 C           2.1705    0.0300    8.3829 C.3     1  LIG1        0.0000
     61 H           1.9287    0.4925    7.5532 H       1  LIG1        0.0000
     62 H           1.5136    0.2414    9.0795 H       1  LIG1        0.0000
     63 H           2.1798   -0.9363    8.2268 H       1  LIG1        0.0000
     64 C           4.6526   -0.1466    8.2542 C.ar    1  LIG1        0.0000
     65 H           4.5227   -0.7767    7.5552 H       1  LIG1        0.0000
     66 C           5.9247    0.1302    8.6815 C.ar    1  LIG1        0.0000
     67 H           6.6700   -0.2570    8.2389 H       1  LIG1        0.0000
     68 C           6.1187    0.9719    9.7578 C.ar    1  LIG1        0.0000
     69 H           6.9998    1.1232   10.0810 H       1  LIG1        0.0000
     70 C           5.0426    1.6032   10.3764 C.ar    1  LIG1        0.0000
     71 C           5.2769    2.3338   11.6750 C.3     1  LIG1        0.0000
     72 H           4.5992    3.0328   11.7842 H       1  LIG1        0.0000
     73 H           6.1684    2.7428   11.6636 H       1  LIG1        0.0000
     74 H           5.2170    1.7013   12.4217 H       1  LIG1        0.0000
     75 C           1.7305    0.6463   13.4980 C.3     1  LIG1        0.0000
     76 C           2.7210    1.2439   14.4868 C.3     1  LIG1        0.0000
     77 H           3.5551    0.7300   14.4649 H       1  LIG1        0.0000
     78 H           2.3405    1.2108   15.3899 H       1  LIG1        0.0000
     79 H           2.9037    2.1744   14.2436 H       1  LIG1        0.0000
     80 C           1.3843   -0.7812   13.8815 C.3     1  LIG1        0.0000
     81 H           0.9064   -1.2108   13.1416 H       1  LIG1        0.0000
     82 H           0.8156   -0.7767   14.6800 H       1  LIG1        0.0000
     83 H           2.2082   -1.2770   14.0707 H       1  LIG1        0.0000
     84 C           0.5023    1.5719   13.2352 C.3     1  LIG1        0.0000
     85 C           0.0575    2.3968   14.4319 C.3     1  LIG1        0.0000
     86 H           0.7936    2.9764   14.7202 H       1  LIG1        0.0000
     87 H          -0.1938    1.7987   15.1667 H       1  LIG1        0.0000
     88 H          -0.7133    2.9472   14.1813 H       1  LIG1        0.0000
     89 C          -0.6789    0.8516   12.6230 C.3     1  LIG1        0.0000
     90 H          -1.3177    1.5086   12.2769 H       1  LIG1        0.0000
     91 H          -1.1147    0.2998   13.3065 H       1  LIG1        0.0000
     92 H          -0.3687    0.2803   11.8908 H       1  LIG1        0.0000
     93 B           5.3125    4.4953    0.4227 B       2  LIG2        0.0000
     94 C           4.3862    5.0010    1.6176 C.ar    2  LIG2        0.0000
     95 C           5.6182    3.2205   -0.1725 C.2     2  LIG2        0.0000
     96 N           5.1887    1.9252    0.3833 N.pl3   2  LIG2        0.0000
     97 C           6.4670    3.1268   -1.4121 C.ar    2  LIG2        0.0000
     98 C           4.2486    1.1384   -0.3919 C.ar    2  LIG2        0.0000
     99 B           5.5529    1.4973    1.6669 B       2  LIG2        0.0000
    100 O           5.1197    0.2807    2.1887 O.3     2  LIG2        0.0000
    101 O           6.3594    2.1825    2.5533 O.3     2  LIG2        0.0000
    102 N           6.0297    5.7415   -0.2429 N.pl3   2  LIG2        0.0000
    103 C           5.3205    6.8250   -0.6244 C.2     2  LIG2        0.0000
    104 H           4.3915    6.8559   -0.4324 H       2  LIG2        0.0000
    105 C           5.8983    7.8853   -1.2824 C.2     2  LIG2        0.0000
    106 H           5.3741    8.6293   -1.5525 H       2  LIG2        0.0000
    107 C           7.2530    7.8510   -1.5436 C.3     2  LIG2        0.0000
    108 H           7.6703    8.5670   -2.0090 H       2  LIG2        0.0000
    109 C           7.9953    6.7670   -1.1225 C.2     2  LIG2        0.0000
    110 H           8.9299    6.7313   -1.2870 H       2  LIG2        0.0000
    111 C           7.3638    5.7407   -0.4629 C.2     2  LIG2        0.0000
    112 H           7.8803    5.0067   -0.1508 H       2  LIG2        0.0000
    113 C           2.9994    5.1964    1.4762 C.ar    2  LIG2        0.0000
    114 C           2.3072    4.9323    0.1542 C.3     2  LIG2        0.0000
    115 H           1.3780    4.6679    0.3197 H       2  LIG2        0.0000
    116 H           2.7739    4.2124   -0.3197 H       2  LIG2        0.0000
    117 H           2.3223    5.7464   -0.3901 H       2  LIG2        0.0000
    118 C           2.2413    5.6876    2.5380 C.ar    2  LIG2        0.0000
    119 H           1.3057    5.8009    2.4232 H       2  LIG2        0.0000
    120 C           2.8163    6.0169    3.7581 C.ar    2  LIG2        0.0000
    121 C           1.9920    6.5412    4.9009 C.3     2  LIG2        0.0000
    122 H           2.4360    6.3284    5.7493 H       2  LIG2        0.0000
    123 H           1.1044    6.1240    4.8826 H       2  LIG2        0.0000
    124 H           1.8984    7.5139    4.8163 H       2  LIG2        0.0000
    125 C           4.1836    5.8628    3.8878 C.ar    2  LIG2        0.0000
    126 H           4.5937    6.0929    4.7137 H       2  LIG2        0.0000
    127 C           4.9812    5.3818    2.8493 C.ar    2  LIG2        0.0000
    128 C           6.4744    5.3312    3.0215 C.3     2  LIG2        0.0000
    129 H           6.8839    6.0812    2.5439 H       2  LIG2        0.0000
    130 H           6.8167    4.4869    2.6585 H       2  LIG2        0.0000
    131 H           6.6960    5.3921    3.9737 H       2  LIG2        0.0000
    132 C           5.9630    3.5596   -2.6627 C.ar    2  LIG2        0.0000
    133 C           4.5196    3.9683   -2.8282 C.3     2  LIG2        0.0000
    134 H           4.3652    4.8159   -2.3609 H       2  LIG2        0.0000
    135 H           3.9385    3.2761   -2.4494 H       2  LIG2        0.0000
    136 H           4.3179    4.0781   -3.7806 H       2  LIG2        0.0000
    137 C           6.8081    3.6273   -3.7643 C.ar    2  LIG2        0.0000
    138 H           6.4517    3.9068   -4.5991 H       2  LIG2        0.0000
    139 C           8.1459    3.3038   -3.6883 C.ar    2  LIG2        0.0000
    140 C           9.0503    3.4455   -4.8903 C.3     2  LIG2        0.0000
    141 H           9.2470    2.5578   -5.2567 H       2  LIG2        0.0000
    142 H           9.8861    3.8815   -4.6212 H       2  LIG2        0.0000
    143 H           8.6043    3.9886   -5.5724 H       2  LIG2        0.0000
    144 C           8.6431    2.8522   -2.4622 C.ar    2  LIG2        0.0000
    145 H           9.5605    2.6182   -2.3910 H       2  LIG2        0.0000
    146 C           7.8219    2.7391   -1.3441 C.ar    2  LIG2        0.0000
    147 C           8.4217    2.2446   -0.0507 C.3     2  LIG2        0.0000
    148 H           8.1311    1.3237    0.1126 H       2  LIG2        0.0000
    149 H           8.1239    2.8167    0.6877 H       2  LIG2        0.0000
    150 H           9.4003    2.2717   -0.1126 H       2  LIG2        0.0000
    151 C           2.8776    1.2121   -0.0875 C.ar    2  LIG2        0.0000
    152 C           2.3815    1.8664    1.1786 C.3     2  LIG2        0.0000
    153 H           1.4533    2.1549    1.0558 H       2  LIG2        0.0000
    154 H           2.9410    2.6435    1.3856 H       2  LIG2        0.0000
    155 H           2.4280    1.2244    1.9185 H       2  LIG2        0.0000
    156 C           1.9602    0.5482   -0.8929 C.ar    2  LIG2        0.0000
    157 H           1.0324    0.6326   -0.7099 H       2  LIG2        0.0000
    158 C           2.3708   -0.2320   -1.9539 C.ar    2  LIG2        0.0000
    159 H           1.7322   -0.6502   -2.5197 H       2  LIG2        0.0000
    160 C           3.7228   -0.3948   -2.1815 C.ar    2  LIG2        0.0000
    161 H           4.0087   -0.9733   -2.8777 H       2  LIG2        0.0000
    162 C           4.6827    0.2710   -1.4117 C.ar    2  LIG2        0.0000
    163 C           6.1292   -0.0537   -1.6677 C.3     2  LIG2        0.0000
    164 H           6.2057   -0.9811   -1.9748 H       2  LIG2        0.0000
    165 H           6.6418    0.0603   -0.8406 H       2  LIG2        0.0000
    166 H           6.4818    0.5489   -2.3548 H       2  LIG2        0.0000
    167 C           6.6572    1.2711    3.6509 C.3     2  LIG2        0.0000
    168 C           6.7804    2.0831    4.9281 C.3     2  LIG2        0.0000
    169 H           7.5926    2.6299    4.8907 H       2  LIG2        0.0000
    170 H           6.8294    1.4775    5.6971 H       2  LIG2        0.0000
    171 H           5.9977    2.6668    5.0214 H       2  LIG2        0.0000
    172 C           7.9779    0.5937    3.3247 C.3     2  LIG2        0.0000
    173 H           7.8788    0.0623    2.5077 H       2  LIG2        0.0000
    174 H           8.2363    0.0078    4.0662 H       2  LIG2        0.0000
    175 H           8.6691    1.2750    3.1914 H       2  LIG2        0.0000
    176 C           5.4386    0.3072    3.6159 C.3     2  LIG2        0.0000
    177 C           4.2167    0.8649    4.3366 C.3     2  LIG2        0.0000
    178 H           4.0399    1.7772    4.0239 H       2  LIG2        0.0000
    179 H           4.3843    0.8779    5.3029 H       2  LIG2        0.0000
    180 H           3.4400    0.2978    4.1486 H       2  LIG2        0.0000
    181 C           5.7193   -1.1020    4.0698 C.3     2  LIG2        0.0000
    182 H           4.9103   -1.6449    3.9676 H       2  LIG2        0.0000
    183 H           5.9917   -1.0940    5.0113 H       2  LIG2        0.0000
    184 H           6.4393   -1.4833    3.5252 H       2  LIG2        0.0000
@<TRIPOS>BOND
     1   143   140    1
     2   141   140    1
     3   140   142    1
     4   140   139    1
     5   138   137    1
     6   136   133    1
     7   137   139   ar
     8   137   132   ar
     9   139   144   ar
    10   161   160    1
    11   133   132    1
    12   133   135    1
    13   133   134    1
    14   132    97   ar
    15   159   158    1
    16   144   145    1
    17   144   146   ar
    18   166   163    1
    19   160   158   ar
    20   160   162   ar
    21   108   107    1
    22   164   163    1
    23   158   156   ar
    24   163   162    1
    25   163   165    1
    26   106   105    1
    27   107   105    1
    28   107   109    1
    29    97   146   ar
    30    97    95    1
    31   162    98   ar
    32   146   147    1
    33   110   109    1
    34   105   103    2
    35   109   111    2
    36   156   157    1
    37   156   151   ar
    38   103   104    1
    39   103   102    1
    40   111   102    1
    41   111   112    1
    42    98   151   ar
    43    98    96    1
    44   117   114    1
    45   116   114    1
    46   102    93    1
    47    95    96    1
    48    95    93    2
    49   150   147    1
    50   151   152    1
    51   147   148    1
    52   147   149    1
    53   114   115    1
    54   114   113    1
    55    96    99    1
    56    93    94    1
    57   153   152    1
    58   152   154    1
    59   152   155    1
    60   113    94   ar
    61   113   118   ar
    62    94   127   ar
    63    99   100    1
    64    99   101    1
    65   100   176    1
    66   119   118    1
    67   173   172    1
    68   118   120   ar
    69   129   128    1
    70   101   167    1
    71   130   128    1
    72   127   128    1
    73   127   125   ar
    74   128   131    1
    75   175   172    1
    76   172   167    1
    77   172   174    1
    78   184   181    1
    79    49    48    1
    80   176   167    1
    81   176   181    1
    82   176   177    1
    83   167   168    1
    84   120   125   ar
    85   120   121    1
    86   125   126    1
    87    51    48    1
    88   182   181    1
    89   178   177    1
    90   181   183    1
    91   180   177    1
    92    48    50    1
    93    48    47    1
    94   177   179    1
    95   124   121    1
    96   123   121    1
    97   169   168    1
    98   121   122    1
    99   168   171    1
   100   168   170    1
   101    53    52    1
   102    47    52   ar
   103    47    45   ar
   104    52    54   ar
   105    57    55    1
   106    46    45    1
   107    45    40   ar
   108    54    55    1
   109    54    15   ar
   110    55    56    1
   111    55    58    1
   112     9     8    1
   113    61    60    1
   114    65    64    1
   115     7     6    1
   116     8     6    1
   117     8    10    1
   118    40    15   ar
   119    40    41    1
   120     6     4    2
   121    63    60    1
   122    67    66    1
   123    15    14    1
   124    11    10    1
   125    64    66   ar
   126    64    59   ar
   127    60    59    1
   128    60    62    1
   129    10    12    2
   130    66    68   ar
   131    59    17   ar
   132     4     5    1
   133     4     3    1
   134    42    41    1
   135    12     3    1
   136    12    13    1
   137    41    44    1
   138    41    43    1
   139     3     2    1
   140    14     2    2
   141    14    16    1
   142    68    69    1
   143    68    70   ar
   144    17    16    1
   145    17    70   ar
   146    37    36    1
   147    38    36    1
   148     2     1    1
   149    16    18    1
   150    70    71    1
   151    36    39    1
   152    36    35    1
   153     1    35   ar
   154     1    21   ar
   155    18    20    1
   156    18    19    1
   157    73    71    1
   158    35    33   ar
   159    71    72    1
   160    71    74    1
   161    92    89    1
   162    23    22    1
   163    25    22    1
   164    20    75    1
   165    19    84    1
   166    90    89    1
   167    22    21    1
   168    22    24    1
   169    21    26   ar
   170    89    84    1
   171    89    91    1
   172    33    34    1
   173    33    28   ar
   174    81    80    1
   175    84    75    1
   176    84    85    1
   177    75    80    1
   178    75    76    1
   179    26    28   ar
   180    26    27    1
   181    80    83    1
   182    80    82    1
   183    28    29    1
   184    88    85    1
   185    79    76    1
   186    85    86    1
   187    85    87    1
   188    77    76    1
   189    76    78    1
   190    30    29    1
   191    29    31    1
   192    29    32    1
