@<TRIPOS>MOLECULE
adeninium chloride hemihydrate
 19 18 0 0 0
SMALL
GASTEIGER

@<TRIPOS>ATOM
      1 CL          3.9884    3.9440    4.8461 Cl      1  LIG1        0.0000
      2 O           1.3571    3.6543   13.2477 O.3     2  HOH2       -0.2528
      3 N           0.5893    0.9612    7.6508 N.2     3  LIG3       -0.2329
      4 N           1.7310    2.8897   10.5538 N.pl3   3  LIG3       -0.1946
      5 C           1.1489    1.8093    8.5825 C.2     3  LIG3        0.1765
      6 N           2.8002    3.6321    8.5724 N.2     3  LIG3       -0.2177
      7 C           2.0529    2.6750    7.9741 C.3     3  LIG3        0.2265
      8 C           0.9733    1.9147    9.9756 C.2     3  LIG3        0.2848
      9 N           2.0440    2.3478    6.6539 N.pl3   3  LIG3       -0.3025
     10 N           0.1703    1.1620   10.7023 N.pl3   3  LIG3       -0.2496
     11 C           2.5954    3.6943    9.8605 C.2     3  LIG3        0.1720
     12 C           1.1576    1.3191    6.5118 C.2     3  LIG3        0.0841
     13 H           3.1151    4.3895   10.5081 H       3  LIG3        0.1285
     14 H           0.9563    0.8722    5.5446 H       3  LIG3        0.0998
     15 H           2.6022    2.7901    5.9367 H       3  LIG3        0.1497
     16 H          -0.3937    0.4723   10.2272 H       3  LIG3        0.2882
     17 H           0.6015    4.2570   13.2777 H       0  HOH0        0.2528
     18 H           0.0715    1.3204   11.6933 H       3  LIG3        0.2882
     19 H           1.6113    3.0118   11.5483 H       3  LIG3        0.2991
@<TRIPOS>BOND
     1    14    12    1
     2    15     9    1
     3    12     9    1
     4    12     3    2
     5     9     7    1
     6     3     5    1
     7     7     6    1
     8     7     5    1
     9     6    11    2
    10     5     8    2
    11    11    13    1
    12    11     4    1
    13     8     4    1
    14     8    10    1
    15    16    10    1
    16     4    19    1
    17    10    18    1
    18     2    17    1
