@<TRIPOS>MOLECULE
1549152.cif
 65 68 0 0 0
SMALL
GASTEIGER

@<TRIPOS>ATOM
      1 B           6.7348    8.5899   16.8152 B       1  LIG1        0.0000
      2 N          12.1966   10.1684   20.0432 N.ar    1  LIG1        0.0000
      3 C           6.4948    8.8818   18.3462 C.ar    1  LIG1        0.0000
      4 C           5.2038    8.6361   18.8372 C.ar    1  LIG1        0.0000
      5 H           4.5215    8.4144   18.2294 H       1  LIG1        0.0000
      6 C           4.9008    8.7084   20.1833 C.ar    1  LIG1        0.0000
      7 H           4.0347    8.5023   20.4862 H       1  LIG1        0.0000
      8 C           5.8770    9.0841   21.0771 C.ar    1  LIG1        0.0000
      9 H           5.6797    9.1318   21.9950 H       1  LIG1        0.0000
     10 C           7.1428    9.3902   20.6296 C.ar    1  LIG1        0.0000
     11 H           7.7890    9.6829   21.2451 H       1  LIG1        0.0000
     12 C           7.4880    9.2746   19.2760 C.ar    1  LIG1        0.0000
     13 C           8.8474    9.5876   18.8367 C.2     1  LIG1        0.0000
     14 H           8.9584    9.7590   17.9181 H       1  LIG1        0.0000
     15 C           9.9281    9.6573   19.5740 C.2     1  LIG1        0.0000
     16 H           9.8212    9.5190   20.4971 H       1  LIG1        0.0000
     17 C          11.2845    9.9292   19.0997 C.ar    1  LIG1        0.0000
     18 C          11.6248    9.9300   17.7760 C.ar    1  LIG1        0.0000
     19 H          10.9723    9.7530   17.1228 H       1  LIG1        0.0000
     20 C          12.9263   10.1913   17.4000 C.ar    1  LIG1        0.0000
     21 H          13.1637   10.2056   16.4912 H       1  LIG1        0.0000
     22 C          13.8542   10.4265   18.3522 C.ar    1  LIG1        0.0000
     23 H          14.7517   10.5928   18.1274 H       1  LIG1        0.0000
     24 C          13.4479   10.4146   19.6348 C.ar    1  LIG1        0.0000
     25 H          14.0926   10.5916   20.2951 H       1  LIG1        0.0000
     26 C           5.5064    8.8978   15.8670 C.ar    1  LIG1        0.0000
     27 C           5.0139   10.2123   15.7401 C.ar    1  LIG1        0.0000
     28 C           5.7051   11.3906   16.3731 C.3     1  LIG1        0.0000
     29 H           5.0525   11.9350   16.8407 H       1  LIG1        0.0000
     30 H           6.1345   11.9219   15.6850 H       1  LIG1        0.0000
     31 H           6.3727   11.0750   17.0008 H       1  LIG1        0.0000
     32 C           3.8819   10.4645   14.9784 C.ar    1  LIG1        0.0000
     33 H           3.5859   11.3518   14.8841 H       1  LIG1        0.0000
     34 C           3.1764    9.4546   14.3534 C.ar    1  LIG1        0.0000
     35 C           1.9277    9.7673   13.5570 C.3     1  LIG1        0.0000
     36 H           1.3164   10.2863   14.1034 H       1  LIG1        0.0000
     37 H           1.4992    8.9394   13.2898 H       1  LIG1        0.0000
     38 H           2.1669   10.2780   12.7675 H       1  LIG1        0.0000
     39 C           3.6513    8.1637   14.4836 C.ar    1  LIG1        0.0000
     40 H           3.1802    7.4618   14.0706 H       1  LIG1        0.0000
     41 C           4.8052    7.8679   15.2061 C.ar    1  LIG1        0.0000
     42 C           5.2420    6.4347   15.2984 C.3     1  LIG1        0.0000
     43 H           4.6921    5.8903   14.7131 H       1  LIG1        0.0000
     44 H           5.1440    6.1255   16.2128 H       1  LIG1        0.0000
     45 H           6.1713    6.3619   15.0298 H       1  LIG1        0.0000
     46 C           8.0849    7.9438   16.3049 C.ar    1  LIG1        0.0000
     47 C           8.8409    8.5513   15.2709 C.ar    1  LIG1        0.0000
     48 C           8.4546    9.8798   14.6870 C.3     1  LIG1        0.0000
     49 H           8.9397   10.0227   13.8595 H       1  LIG1        0.0000
     50 H           8.6743   10.5857   15.3155 H       1  LIG1        0.0000
     51 H           7.5008    9.8896   14.5092 H       1  LIG1        0.0000
     52 C          10.0311    7.9729   14.8450 C.ar    1  LIG1        0.0000
     53 H          10.5192    8.3894   14.1580 H       1  LIG1        0.0000
     54 C          10.5193    6.8097   15.3968 C.ar    1  LIG1        0.0000
     55 C          11.8215    6.1896   14.9124 C.3     1  LIG1        0.0000
     56 H          11.9288    6.3619   13.9632 H       1  LIG1        0.0000
     57 H          11.8015    5.2323   15.0662 H       1  LIG1        0.0000
     58 H          12.5659    6.5780   15.3974 H       1  LIG1        0.0000
     59 C           9.7969    6.2213   16.4181 C.ar    1  LIG1        0.0000
     60 H          10.1217    5.4306   16.8097 H       1  LIG1        0.0000
     61 C           8.5985    6.7651   16.8869 C.ar    1  LIG1        0.0000
     62 C           7.8904    6.0384   18.0068 C.3     1  LIG1        0.0000
     63 H           8.2256    5.1301   18.0655 H       1  LIG1        0.0000
     64 H           6.9367    6.0198   17.8289 H       1  LIG1        0.0000
     65 H           8.0536    6.4985   18.8445 H       1  LIG1        0.0000
@<TRIPOS>BOND
     1    38    35    1
     2    37    35    1
     3    35    36    1
     4    35    34    1
     5    49    48    1
     6    56    55    1
     7    40    39    1
     8    53    52    1
     9    34    39   ar
    10    34    32   ar
    11    39    41   ar
    12    51    48    1
    13    48    47    1
    14    48    50    1
    15    43    42    1
    16    52    47   ar
    17    52    54   ar
    18    33    32    1
    19    55    57    1
    20    55    54    1
    21    55    58    1
    22    32    27   ar
    23    45    42    1
    24    41    42    1
    25    41    26   ar
    26    47    46   ar
    27    42    44    1
    28    54    59   ar
    29    30    28    1
    30    27    26   ar
    31    27    28    1
    32    26     1    1
    33    46     1    1
    34    46    61   ar
    35    28    29    1
    36    28    31    1
    37    59    60    1
    38    59    61   ar
    39    21    20    1
    40     1     3    1
    41    61    62    1
    42    19    18    1
    43    20    18   ar
    44    20    22   ar
    45    18    17   ar
    46    64    62    1
    47    14    13    1
    48    62    63    1
    49    62    65    1
    50    23    22    1
    51     5     4    1
    52     3     4   ar
    53     3    12   ar
    54    22    24   ar
    55    13    12    1
    56    13    15    2
    57     4     6   ar
    58    17    15    1
    59    17     2   ar
    60    12    10   ar
    61    15    16    1
    62    24     2   ar
    63    24    25    1
    64     6     7    1
    65     6     8   ar
    66    10     8   ar
    67    10    11    1
    68     8     9    1
