@<TRIPOS>MOLECULE
11D-Me2
 192 212 0 0 0
SMALL
GASTEIGER

@<TRIPOS>ATOM
      1 N           9.3694   17.2898    2.0810 N.ar    1  LIG1       -0.3424
      2 N           7.2313   13.4826   -1.2473 N.ar    1  LIG1       -0.3429
      3 N           1.9003   12.7567    0.8816 N.ar    2  LIG2       -0.3424
      4 N           6.3264   10.6276    3.3293 N.ar    2  LIG2       -0.3429
      5 N           4.2828    9.2410    6.1229 N.ar    3  LIG3       -0.3424
      6 N          -0.1695   11.6419    4.0023 N.ar    3  LIG3       -0.3429
      7 N           9.2506    6.1848    5.6766 N.ar    4  LIG4       -0.3424
      8 N           7.3360    9.1339    9.8756 N.ar    4  LIG4       -0.3429
      9 C          10.8579   17.8065   -1.1328 C.ar    1  LIG1       -0.0520
     10 C          11.6454   18.9073   -0.9415 C.ar    1  LIG1       -0.0611
     11 C          11.7149   19.5221    0.3030 C.ar    1  LIG1       -0.0598
     12 C          10.9798   19.0480    1.3694 C.ar    1  LIG1       -0.0376
     13 C          10.1850   17.9350    1.1770 C.ar    1  LIG1        0.0499
     14 C           8.7398   16.2200    1.4301 C.ar    1  LIG1        0.0584
     15 C           7.8261   15.2816    1.9667 C.ar    1  LIG1        0.0082
     16 C           7.3101   14.3349    1.0955 C.ar    1  LIG1       -0.0279
     17 C           7.6924   14.3288   -0.2419 C.ar    1  LIG1        0.0511
     18 C           7.8924   13.7914   -2.4136 C.ar    1  LIG1        0.0499
     19 C           7.7187   13.2202   -3.6765 C.ar    1  LIG1       -0.0376
     20 C           8.5110   13.6849   -4.6993 C.ar    1  LIG1       -0.0598
     21 C           9.4419   14.6863   -4.4870 C.ar    1  LIG1       -0.0611
     22 C           9.5859   15.2613   -3.2468 C.ar    1  LIG1       -0.0520
     23 C           8.7875   14.8488   -2.1813 C.ar    1  LIG1        0.0082
     24 C           8.6529   15.2095   -0.7819 C.ar    1  LIG1        0.0174
     25 C           9.1734   16.1992    0.0802 C.ar    1  LIG1        0.0179
     26 C          10.0978   17.2931   -0.0789 C.ar    1  LIG1        0.0083
     27 C           9.2002   17.7328    3.4492 C.3     1  LIG1        0.0124
     28 C           6.3133   12.3922   -1.0336 C.3     1  LIG1        0.0124
     29 C           7.4291   15.2153    3.4009 C.ar    1  LIG1       -0.0158
     30 C           6.3837   15.9389    3.9201 C.ar    1  LIG1       -0.0540
     31 C           6.0141   15.8471    5.2311 C.ar    1  LIG1       -0.0612
     32 C           6.6934   14.9885    6.0779 C.ar    1  LIG1       -0.0617
     33 C           7.7204   14.2337    5.5804 C.ar    1  LIG1       -0.0612
     34 C           8.0804   14.3381    4.2582 C.ar    1  LIG1       -0.0540
     35 C           2.9113    9.9912   -1.1613 C.ar    2  LIG2       -0.0520
     36 C           1.9395    9.9782   -2.1454 C.ar    2  LIG2       -0.0611
     37 C           0.8824   10.8908   -2.1317 C.ar    2  LIG2       -0.0598
     38 C           0.7853   11.8464   -1.1530 C.ar    2  LIG2       -0.0376
     39 C           1.7811   11.8762   -0.1732 C.ar    2  LIG2        0.0499
     40 C           3.0475   12.4122    1.6055 C.ar    2  LIG2        0.0584
     41 C           3.5603   13.0608    2.7549 C.ar    2  LIG2        0.0082
     42 C           4.6318   12.4542    3.3871 C.ar    2  LIG2       -0.0279
     43 C           5.2236   11.3167    2.8387 C.ar    2  LIG2        0.0511
     44 C           6.6677    9.6385    2.4333 C.ar    2  LIG2        0.0499
     45 C           7.7241    8.7573    2.4974 C.ar    2  LIG2       -0.0376
     46 C           7.8902    7.8644    1.4664 C.ar    2  LIG2       -0.0598
     47 C           7.0077    7.8592    0.3745 C.ar    2  LIG2       -0.0611
     48 C           5.9589    8.7441    0.3155 C.ar    2  LIG2       -0.0520
     49 C           5.7474    9.6696    1.3426 C.ar    2  LIG2        0.0082
     50 C           4.8061   10.7282    1.6288 C.ar    2  LIG2        0.0174
     51 C           3.6553   11.2850    1.0154 C.ar    2  LIG2        0.0179
     52 C           2.8514   10.9589   -0.1517 C.ar    2  LIG2        0.0083
     53 C           0.8690   13.7199    1.2170 C.3     2  LIG2        0.0124
     54 C           7.0123   10.8622    4.5860 C.3     2  LIG2        0.0124
     55 C           3.1043   14.3865    3.2432 C.ar    2  LIG2       -0.0158
     56 C           3.1835   15.5099    2.4195 C.ar    2  LIG2       -0.0540
     57 C           2.8337   16.7587    2.8911 C.ar    2  LIG2       -0.0612
     58 C           2.3848   16.9136    4.1859 C.ar    2  LIG2       -0.0617
     59 C           2.2919   15.8082    5.0156 C.ar    2  LIG2       -0.0612
     60 C           2.6526   14.5684    4.5437 C.ar    2  LIG2       -0.0540
     61 C           3.6860    7.5953    2.9953 C.ar    3  LIG3       -0.0520
     62 C           4.7141    6.6771    2.9236 C.ar    3  LIG3       -0.0611
     63 C           5.6607    6.5847    3.9457 C.ar    3  LIG3       -0.0598
     64 C           5.5845    7.4058    5.0517 C.ar    3  LIG3       -0.0376
     65 C           4.5441    8.3128    5.1271 C.ar    3  LIG3        0.0499
     66 C           3.1394    9.9645    5.7732 C.ar    3  LIG3        0.0584
     67 C           2.5229   11.0002    6.4885 C.ar    3  LIG3        0.0082
     68 C           1.4135   11.6027    5.9259 C.ar    3  LIG3       -0.0279
     69 C           0.9371   11.1542    4.6806 C.ar    3  LIG3        0.0511
     70 C          -0.3461   10.8724    2.8671 C.ar    3  LIG3        0.0499
     71 C          -1.3685   10.9759    1.9140 C.ar    3  LIG3       -0.0376
     72 C          -1.3748   10.0530    0.8962 C.ar    3  LIG3       -0.0598
     73 C          -0.4029    9.0698    0.8098 C.ar    3  LIG3       -0.0611
     74 C           0.6170    8.9878    1.7358 C.ar    3  LIG3       -0.0520
     75 C           0.6678    9.9025    2.7930 C.ar    3  LIG3        0.0082
     76 C           1.5192   10.0994    3.9588 C.ar    3  LIG3        0.0174
     77 C           2.6676    9.4941    4.5231 C.ar    3  LIG3        0.0179
     78 C           3.5732    8.4430    4.1105 C.ar    3  LIG3        0.0083
     79 C           5.0540    9.3076    7.3545 C.3     3  LIG3        0.0124
     80 C          -1.0098   12.7445    4.4202 C.3     3  LIG3        0.0124
     81 C           3.0284   11.5161    7.8101 C.ar    3  LIG3       -0.0158
     82 C           3.8825   12.5930    7.8636 C.ar    3  LIG3       -0.0540
     83 C           4.3570   13.0672    9.0791 C.ar    3  LIG3       -0.0612
     84 C           3.9559   12.4663   10.2586 C.ar    3  LIG3       -0.0617
     85 C           3.1032   11.3978   10.2142 C.ar    3  LIG3       -0.0612
     86 C           2.6303   10.9276    8.9931 C.ar    3  LIG3       -0.0540
     87 C          10.5590    9.4879    5.2336 C.ar    4  LIG4       -0.0520
     88 C          11.2878    9.3798    4.0624 C.ar    4  LIG4       -0.0611
     89 C          11.3752    8.1645    3.3895 C.ar    4  LIG4       -0.0598
     90 C          10.7382    7.0489    3.8456 C.ar    4  LIG4       -0.0376
     91 C           9.9908    7.1617    5.0182 C.ar    4  LIG4        0.0499
     92 C           8.6987    6.7385    6.8175 C.ar    4  LIG4        0.0584
     93 C           7.8741    6.1108    7.7829 C.ar    4  LIG4        0.0082
     94 C           7.4121    6.8871    8.8385 C.ar    4  LIG4       -0.0279
     95 C           7.7499    8.2276    8.9205 C.ar    4  LIG4        0.0511
     96 C           7.8508   10.3724    9.5634 C.ar    4  LIG4        0.0499
     97 C           7.6841   11.5749   10.2296 C.ar    4  LIG4       -0.0376
     98 C           8.3193   12.6956    9.7321 C.ar    4  LIG4       -0.0598
     99 C           9.0948   12.6122    8.5978 C.ar    4  LIG4       -0.0611
    100 C           9.2612   11.4198    7.9264 C.ar    4  LIG4       -0.0520
    101 C           8.6383   10.2616    8.3933 C.ar    4  LIG4        0.0082
    102 C           8.5716    8.8883    7.9728 C.ar    4  LIG4        0.0174
    103 C           9.0562    8.1062    6.8922 C.ar    4  LIG4        0.0179
    104 C           9.8812    8.3693    5.7374 C.ar    4  LIG4        0.0083
    105 C           9.1681    4.8215    5.2080 C.3     4  LIG4        0.0124
    106 C           6.4149    8.8627   10.9588 C.3     4  LIG4        0.0124
    107 C           7.4270    4.6831    7.7177 C.ar    4  LIG4       -0.0158
    108 C           8.1037    3.6769    8.3836 C.ar    4  LIG4       -0.0540
    109 C           7.6728    2.3734    8.3507 C.ar    4  LIG4       -0.0612
    110 C           6.5118    2.0497    7.6766 C.ar    4  LIG4       -0.0617
    111 C           5.8091    3.0273    7.0283 C.ar    4  LIG4       -0.0612
    112 C           6.2699    4.3283    7.0513 C.ar    4  LIG4       -0.0540
    113 H          10.8264   17.3898   -1.9868 H       1  LIG1        0.0624
    114 H          12.1517   19.2554   -1.6659 H       1  LIG1        0.0618
    115 H          12.2768   20.2798    0.4213 H       1  LIG1        0.0618
    116 H          11.0188   19.4775    2.2153 H       1  LIG1        0.0638
    117 H           6.6929   13.6873    1.4131 H       1  LIG1        0.0645
    118 H           7.0768   12.5355   -3.8229 H       1  LIG1        0.0638
    119 H           8.4167   13.3122   -5.5682 H       1  LIG1        0.0618
    120 H           9.9874   14.9788   -5.2068 H       1  LIG1        0.0618
    121 H          10.2343   15.9431   -3.1147 H       1  LIG1        0.0624
    122 H           8.3753   17.3549    3.8164 H       1  LIG1        0.0456
    123 H           9.1498   18.7113    3.4712 H       1  LIG1        0.0456
    124 H           9.9634   17.4333    3.9866 H       1  LIG1        0.0456
    125 H           6.7705   11.5419   -1.2024 H       1  LIG1        0.0456
    126 H           5.5514   12.4817   -1.6449 H       1  LIG1        0.0456
    127 H           5.9923   12.4118   -0.1070 H       1  LIG1        0.0456
    128 H           5.9011   16.5242    3.3481 H       1  LIG1        0.0624
    129 H           5.2936   16.3709    5.5617 H       1  LIG1        0.0618
    130 H           6.4495   14.9253    6.9943 H       1  LIG1        0.0618
    131 H           8.1846   13.6332    6.1516 H       1  LIG1        0.0618
    132 H           8.7886   13.8004    3.9250 H       1  LIG1        0.0624
    133 H           3.6107    9.3485   -1.1700 H       2  LIG2        0.0624
    134 H           1.9919    9.3373   -2.8441 H       2  LIG2        0.0618
    135 H           0.2205   10.8496   -2.8117 H       2  LIG2        0.0618
    136 H           0.0652   12.4667   -1.1409 H       2  LIG2        0.0638
    137 H           4.9655   12.8142    4.2005 H       2  LIG2        0.0645
    138 H           8.3210    8.7659    3.2362 H       2  LIG2        0.0638
    139 H           8.6100    7.2463    1.4925 H       2  LIG2        0.0618
    140 H           7.1373    7.2373   -0.3306 H       2  LIG2        0.0618
    141 H           5.3714    8.7278   -0.4311 H       2  LIG2        0.0624
    142 H           0.0387   13.2475    1.4358 H       2  LIG2        0.0456
    143 H           0.7153   14.3139    0.4521 H       2  LIG2        0.0456
    144 H           1.1559   14.2500    1.9900 H       2  LIG2        0.0456
    145 H           7.9538   11.0694    4.4111 H       2  LIG2        0.0456
    146 H           6.9532   10.0577    5.1453 H       2  LIG2        0.0456
    147 H           6.5921   11.6139    5.0513 H       2  LIG2        0.0456
    148 H           3.4828   15.4146    1.5233 H       2  LIG2        0.0624
    149 H           2.9015   17.5167    2.3206 H       2  LIG2        0.0618
    150 H           2.1423   17.7742    4.5084 H       2  LIG2        0.0618
    151 H           1.9789   15.9061    5.9069 H       2  LIG2        0.0618
    152 H           2.5905   13.8173    5.1226 H       2  LIG2        0.0624
    153 H           3.0531    7.6545    2.2898 H       3  LIG3        0.0624
    154 H           4.7766    6.1006    2.1715 H       3  LIG3        0.0618
    155 H           6.3657    5.9501    3.8796 H       3  LIG3        0.0618
    156 H           6.2315    7.3497    5.7449 H       3  LIG3        0.0638
    157 H           0.9738   12.3137    6.3769 H       3  LIG3        0.0645
    158 H          -2.0294   11.6564    1.9690 H       3  LIG3        0.0638
    159 H          -2.0618   10.0882    0.2398 H       3  LIG3        0.0618
    160 H          -0.4376    8.4413    0.0989 H       3  LIG3        0.0618
    161 H           1.2815    8.3126    1.6562 H       3  LIG3        0.0624
    162 H           5.9933    9.4854    7.1418 H       3  LIG3        0.0456
    163 H           4.9813    8.4559    7.8321 H       3  LIG3        0.0456
    164 H           4.7055   10.0295    7.9196 H       3  LIG3        0.0456
    165 H          -1.9269   12.4245    4.5554 H       3  LIG3        0.0456
    166 H          -1.0053   13.4394    3.7289 H       3  LIG3        0.0456
    167 H          -0.6666   13.1175    5.2603 H       3  LIG3        0.0456
    168 H           4.1509   13.0195    7.0575 H       3  LIG3        0.0624
    169 H           4.9570   13.8035    9.1010 H       3  LIG3        0.0618
    170 H           4.2692   12.7933   11.0927 H       3  LIG3        0.0618
    171 H           2.8329   10.9759   11.0214 H       3  LIG3        0.0618
    172 H           2.0264   10.1930    8.9730 H       3  LIG3        0.0624
    173 H          10.5207   10.3180    5.6946 H       4  LIG4        0.0624
    174 H          11.7316   10.1424    3.7127 H       4  LIG4        0.0618
    175 H          11.8911    8.1121    2.5929 H       4  LIG4        0.0618
    176 H          10.8010    6.2230    3.3805 H       4  LIG4        0.0638
    177 H           6.8620    6.4963    9.5078 H       4  LIG4        0.0645
    178 H           7.1465   11.6288   11.0100 H       4  LIG4        0.0638
    179 H           8.2188   13.5300   10.1754 H       4  LIG4        0.0618
    180 H           9.5260   13.3937    8.2713 H       4  LIG4        0.0618
    181 H           9.8000   11.3870    7.1450 H       4  LIG4        0.0624
    182 H           8.5995    4.3016    5.8145 H       4  LIG4        0.0456
    183 H          10.0662    4.4287    5.1841 H       4  LIG4        0.0456
    184 H           8.7823    4.8090    4.3074 H       4  LIG4        0.0456
    185 H           5.5958    9.3847   10.8301 H       4  LIG4        0.0456
    186 H           6.8301    9.1127   11.8106 H       4  LIG4        0.0456
    187 H           6.1959    7.9071   10.9695 H       4  LIG4        0.0456
    188 H           8.8870    3.8939    8.8758 H       4  LIG4        0.0624
    189 H           8.1725    1.6967    8.7899 H       4  LIG4        0.0618
    190 H           6.2026    1.1508    7.6636 H       4  LIG4        0.0618
    191 H           5.0087    2.8115    6.5632 H       4  LIG4        0.0618
    192 H           5.7747    5.0006    6.5973 H       4  LIG4        0.0624
@<TRIPOS>BOND
     1   119    20    1
     2   120    21    1
     3    20    21   ar
     4    20    19   ar
     5    21    22   ar
     6   118    19    1
     7    19    18   ar
     8    22   121    1
     9    22    23   ar
    10   134    36    1
    11   135    37    1
    12    18    23   ar
    13    18     2   ar
    14    23    24   ar
    15    36    37   ar
    16    36    35   ar
    17    37    38   ar
    18   113     9    1
    19   114    10    1
    20   126    28    1
    21     2    28    1
    22     2    17   ar
    23   125    28    1
    24   133    35    1
    25    35    52   ar
    26    38   136    1
    27    38    39   ar
    28     9    10   ar
    29     9    26   ar
    30    28   127    1
    31    10    11   ar
    32    24    17   ar
    33    24    25   ar
    34   141    48    1
    35   140    47    1
    36    17    16   ar
    37    39    52   ar
    38    39     3   ar
    39    52    51   ar
    40    26    25   ar
    41    26    13   ar
    42    25    14   ar
    43   160    73    1
    44   159    72    1
    45    11   115    1
    46    11    12   ar
    47    48    47   ar
    48    48    49   ar
    49    47    46   ar
    50   143    53    1
    51    73    72   ar
    52    73    74   ar
    53     3    53    1
    54     3    40   ar
    55    72    71   ar
    56    51    40   ar
    57    51    50   ar
    58    16   117    1
    59    16    15   ar
    60    13    12   ar
    61    13     1   ar
    62    53   142    1
    63    53   144    1
    64    49    50   ar
    65    49    44   ar
    66    12   116    1
    67    14    15   ar
    68    14     1   ar
    69    46   139    1
    70    46    45   ar
    71   148    56    1
    72    40    41   ar
    73    50    43   ar
    74   161    74    1
    75    74    75   ar
    76    71   158    1
    77    71    70   ar
    78    15    29    1
    79     1    27    1
    80   154    62    1
    81   153    61    1
    82   149    57    1
    83    56    57   ar
    84    56    55   ar
    85    44    45   ar
    86    44     4   ar
    87    45   138    1
    88   175    89    1
    89    41    55    1
    90    41    42   ar
    91    75    70   ar
    92    75    76   ar
    93    43     4   ar
    94    43    42   ar
    95    70     6   ar
    96    57    58   ar
    97    62    61   ar
    98    62    63   ar
    99    61    78   ar
   100    55    60   ar
   101     4    54    1
   102   128    30    1
   103   176    90    1
   104    42   137    1
   105    89    90   ar
   106    89    88   ar
   107    29    30   ar
   108    29    34   ar
   109    27   123    1
   110    27   122    1
   111    27   124    1
   112   174    88    1
   113   166    80    1
   114    90    91   ar
   115   155    63    1
   116    30    31   ar
   117   132    34    1
   118    63    64   ar
   119    76    77   ar
   120    76    69   ar
   121     6    80    1
   122     6    69   ar
   123    88    87   ar
   124    78    77   ar
   125    78    65   ar
   126    58   150    1
   127    58    59   ar
   128    34    33   ar
   129   184   105    1
   130   145    54    1
   131    80   165    1
   132    80   167    1
   133    77    66   ar
   134    60    59   ar
   135    60   152    1
   136    54   147    1
   137    54   146    1
   138    69    68   ar
   139    59   151    1
   140    91     7   ar
   141    91   104   ar
   142    64    65   ar
   143    64   156    1
   144    65     5   ar
   145   183   105    1
   146   105     7    1
   147   105   182    1
   148    31   129    1
   149    31    32   ar
   150    87   173    1
   151    87   104   ar
   152    33    32   ar
   153    33   131    1
   154     7    92   ar
   155   104   103   ar
   156    66     5   ar
   157    66    67   ar
   158    68   157    1
   159    68    67   ar
   160    32   130    1
   161     5    79    1
   162    67    81    1
   163   191   111    1
   164   192   112    1
   165    92   103   ar
   166    92    93   ar
   167   103   102   ar
   168   111   112   ar
   169   111   110   ar
   170   112   107   ar
   171   168    82    1
   172   162    79    1
   173   181   100    1
   174    79   163    1
   175    79   164    1
   176   190   110    1
   177   110   109   ar
   178   107    93    1
   179   107   108   ar
   180    93    94   ar
   181    81    82   ar
   182    81    86   ar
   183    82    83   ar
   184   100   101   ar
   185   100    99   ar
   186   102   101   ar
   187   102    95   ar
   188   180    99    1
   189   109   108   ar
   190   109   189    1
   191   108   188    1
   192   101    96   ar
   193    99    98   ar
   194    94    95   ar
   195    94   177    1
   196    95     8   ar
   197   172    86    1
   198    86    85   ar
   199    83   169    1
   200    83    84   ar
   201    96     8   ar
   202    96    97   ar
   203    98   179    1
   204    98    97   ar
   205     8   106    1
   206    85    84   ar
   207    85   171    1
   208    97   178    1
   209    84   170    1
   210   185   106    1
   211   106   187    1
   212   106   186    1
