@<TRIPOS>MOLECULE
Methyl (S)-(1-(3-bromophenyl)-2-hydroxy-1-(5-methoxyfuran-2-yl)ethyl)carbamate
 38 39 0 0 0
SMALL
GASTEIGER

@<TRIPOS>ATOM
      1 BR          1.4047   12.1370   13.1363 Br      1  LIG1       -0.0503
      2 O           2.6333    7.1567   11.1638 O.2     1  LIG1       -0.2265
      3 O           0.8482    8.5633    6.8429 O.2     1  LIG1       -0.4273
      4 N           1.1941    8.1171    9.6526 N.am    1  LIG1       -0.2625
      5 H           0.4510    8.1010    9.4263 H       1  LIG1        0.1534
      6 O           4.3031    7.7642    9.1808 O.3     1  LIG1       -0.3921
      7 H           3.9661    7.6262    9.7811 H       1  LIG1        0.2095
      8 O           0.3860    7.0365   11.3911 O.3     1  LIG1       -0.4537
      9 C           1.9199   10.5572   10.8464 C.ar    1  LIG1       -0.0420
     10 H           1.1096   10.1241   11.0871 H       1  LIG1        0.0632
     11 C           0.1718   10.5716    6.1285 C.ar    1  LIG1        0.0219
     12 H          -0.2146   11.2090    5.5138 H       1  LIG1        0.0689
     13 C           1.3191    9.5212    7.7357 C.ar    1  LIG1        0.1393
     14 C           2.3853   11.6249   11.5982 C.ar    1  LIG1        0.0182
     15 C           2.1269    8.9586    8.8797 C.3     1  LIG1        0.1435
     16 C           1.4969    7.4190   10.7467 C.2     1  LIG1        0.4011
     17 C           3.2790    8.1298    8.2698 C.3     1  LIG1        0.0768
     18 H           2.8979    7.3039    7.8776 H       1  LIG1        0.0586
     19 H           3.6852    8.6492    7.5324 H       1  LIG1        0.0586
     20 C           3.8134   10.8047    9.3965 C.ar    1  LIG1       -0.0560
     21 H           4.3112   10.5299    8.6361 H       1  LIG1        0.0621
     22 C           0.9367   10.7399    7.3387 C.ar    1  LIG1       -0.0142
     23 H           1.0574   11.5544    7.8057 H       1  LIG1        0.0654
     24 C           2.6383   10.1241    9.7427 C.ar    1  LIG1       -0.0134
     25 O          -0.3346    8.4449    4.9519 O.3     1  LIG1       -0.4673
     26 C           3.5609   12.2968   11.2760 C.ar    1  LIG1       -0.0477
     27 H           3.8761   13.0177   11.8073 H       1  LIG1        0.0629
     28 C           0.1615    9.2579    5.8878 C.ar    1  LIG1        0.2864
     29 C           4.2535   11.8767   10.1570 C.ar    1  LIG1       -0.0604
     30 H           5.0479   12.3328    9.9038 H       1  LIG1        0.0618
     31 C           0.5806    6.2736   12.6051 C.3     1  LIG1        0.0833
     32 H           1.2243    6.7341   13.1824 H       1  LIG1        0.0661
     33 H           0.9235    5.3829   12.3798 H       1  LIG1        0.0661
     34 H          -0.2749    6.1844   13.0759 H       1  LIG1        0.0661
     35 C          -1.0812    9.1413    3.9412 C.3     1  LIG1        0.0819
     36 H          -0.5015    9.7946    3.4982 H       1  LIG1        0.0661
     37 H          -1.8395    9.6032    4.3555 H       1  LIG1        0.0661
     38 H          -1.4127    8.4981    3.2795 H       1  LIG1        0.0661
@<TRIPOS>BOND
     1    38    35    1
     2    36    35    1
     3    35    37    1
     4    35    25    1
     5    25    28    1
     6    12    11    1
     7    28    11   ar
     8    28     3   ar
     9    11    22   ar
    10     3    13   ar
    11    22    13   ar
    12    22    23    1
    13    19    17    1
    14    13    15    1
    15    18    17    1
    16    17    15    1
    17    17     6    1
    18    21    20    1
    19    15     4    1
    20    15    24    1
    21     6     7    1
    22    20    24   ar
    23    20    29   ar
    24     5     4    1
    25     4    16   am
    26    24     9   ar
    27    30    29    1
    28    29    26   ar
    29    16     2    2
    30    16     8    1
    31     9    10    1
    32     9    14   ar
    33    26    14   ar
    34    26    27    1
    35     8    31    1
    36    14     1    1
    37    33    31    1
    38    31    34    1
    39    31    32    1
