@<TRIPOS>MOLECULE
3-Bpin-5-F-2-Me-1-SO2Ph indoline
 54 57 0 0 0
SMALL
GASTEIGER

@<TRIPOS>ATOM
      1 B           4.3512    5.6280    6.3307 B       1  LIG1        0.0000
      2 C           6.8785    5.2260    7.0341 C.3     1  LIG1        0.0000
      3 H           6.4418    5.2689    7.9327 H       1  LIG1        0.0000
      4 C           5.8055    5.1644    5.9184 C.3     1  LIG1        0.0000
      5 H           5.7833    4.2582    5.4962 H       1  LIG1        0.0000
      6 C           6.2686    6.2111    4.9240 C.ar    1  LIG1        0.0000
      7 C           7.2858    6.9971    5.4686 C.ar    1  LIG1        0.0000
      8 C           7.8236    8.0651    4.7736 C.ar    1  LIG1        0.0000
      9 H           8.5283    8.5817    5.1465 H       1  LIG1        0.0000
     10 C           7.3077    8.3675    3.5108 C.ar    1  LIG1        0.0000
     11 H           7.6468    9.1016    3.0123 H       1  LIG1        0.0000
     12 C           6.3003    7.5820    3.0038 C.ar    1  LIG1        0.0000
     13 C           5.7625    6.5065    3.6699 C.ar    1  LIG1        0.0000
     14 H           5.0689    5.9849    3.2835 H       1  LIG1        0.0000
     15 C           7.8650    4.0713    6.9830 C.3     1  LIG1        0.0000
     16 H           7.3877    3.2273    7.1257 H       1  LIG1        0.0000
     17 H           8.5402    4.1871    7.6837 H       1  LIG1        0.0000
     18 H           8.3033    4.0545    6.1066 H       1  LIG1        0.0000
     19 C           7.1444    8.6303    8.4284 C.ar    1  LIG1        0.0000
     20 C           6.1219    8.3033    9.3127 C.ar    1  LIG1        0.0000
     21 H           6.0320    7.4155    9.6387 H       1  LIG1        0.0000
     22 C           5.2344    9.2936    9.7120 C.ar    1  LIG1        0.0000
     23 H           4.5324    9.0818   10.3160 H       1  LIG1        0.0000
     24 C           5.3642   10.5841    9.2381 C.ar    1  LIG1        0.0000
     25 H           4.7520   11.2547    9.5169 H       1  LIG1        0.0000
     26 C           6.3799   10.9020    8.3611 C.ar    1  LIG1        0.0000
     27 H           6.4666   11.7917    8.0396 H       1  LIG1        0.0000
     28 C           7.2755    9.9265    7.9471 C.ar    1  LIG1        0.0000
     29 H           7.9728   10.1435    7.3394 H       1  LIG1        0.0000
     30 C           2.1300    6.0992    6.1607 C.3     1  LIG1        0.0000
     31 C           2.8311    7.0812    7.1498 C.3     1  LIG1        0.0000
     32 C           1.3126    6.7716    5.0738 C.3     1  LIG1        0.0000
     33 H           0.5797    7.2780    5.4824 H       1  LIG1        0.0000
     34 H           0.9439    6.0902    4.4737 H       1  LIG1        0.0000
     35 H           1.8859    7.3808    4.5635 H       1  LIG1        0.0000
     36 C           1.2899    5.0238    6.8314 C.3     1  LIG1        0.0000
     37 H           1.8080    4.6055    7.5504 H       1  LIG1        0.0000
     38 H           1.0406    4.3445    6.1706 H       1  LIG1        0.0000
     39 H           0.4795    5.4283    7.2056 H       1  LIG1        0.0000
     40 C           3.2187    8.4052    6.5048 C.3     1  LIG1        0.0000
     41 H           3.6950    8.2331    5.6664 H       1  LIG1        0.0000
     42 H           3.7998    8.9072    7.1141 H       1  LIG1        0.0000
     43 H           2.4102    8.9275    6.3206 H       1  LIG1        0.0000
     44 C           2.1035    7.3013    8.4603 C.3     1  LIG1        0.0000
     45 H           1.2167    7.6785    8.2822 H       1  LIG1        0.0000
     46 H           2.6166    7.9222    9.0185 H       1  LIG1        0.0000
     47 H           2.0066    6.4455    8.9278 H       1  LIG1        0.0000
     48 F           5.7985    7.8867    1.7666 F       1  LIG1        0.0000
     49 N           7.6223    6.5030    6.7551 N.pl3   1  LIG1        0.0000
     50 O           8.4881    6.4862    9.0343 O.2     1  LIG1        0.0000
     51 O           9.4196    8.0746    7.3655 O.2     1  LIG1        0.0000
     52 O           4.1061    6.3981    7.4225 O.3     1  LIG1        0.0000
     53 O           3.2751    5.4353    5.5223 O.3     1  LIG1        0.0000
     54 S           8.2990    7.3916    7.9425 S.O2    1  LIG1        0.0000
@<TRIPOS>BOND
     1    48    12    1
     2    12    10   ar
     3    12    13   ar
     4    11    10    1
     5    14    13    1
     6    10     8   ar
     7    13     6   ar
     8    34    32    1
     9    35    32    1
    10     8     9    1
    11     8     7   ar
    12     6     7   ar
    13     6     4    1
    14    32    33    1
    15    32    30    1
    16     7    49    1
    17     5     4    1
    18    53    30    1
    19    53     1    1
    20    41    40    1
    21     4     1    1
    22     4     2    1
    23    18    15    1
    24    30    36    1
    25    30    31    1
    26    38    36    1
    27    43    40    1
    28     1    52    1
    29    40    42    1
    30    40    31    1
    31    49     2    1
    32    49    54    1
    33    36    39    1
    34    36    37    1
    35    15     2    1
    36    15    16    1
    37    15    17    1
    38     2     3    1
    39    31    52    1
    40    31    44    1
    41    29    28    1
    42    51    54    2
    43    54    19    1
    44    54    50    2
    45    28    26   ar
    46    28    19   ar
    47    27    26    1
    48    45    44    1
    49    26    24   ar
    50    19    20   ar
    51    44    47    1
    52    44    46    1
    53    24    25    1
    54    24    22   ar
    55    20    21    1
    56    20    22   ar
    57    22    23    1
