@<TRIPOS>MOLECULE
C22 H16 I2 N2, 2(Cl)
 44 44 0 0 0
SMALL
GASTEIGER

@<TRIPOS>ATOM
      1 I           6.0816    6.3782    7.8243 I       1  LIG1       -0.0453
      2 I           1.9318    7.7019   11.1615 I       1  LIG1       -0.0453
      3 N           8.6968    5.5658    4.5233 N.pl3   1  LIG1       -0.3151
      4 N          -0.6642   10.1293   13.6051 N.pl3   1  LIG1       -0.3151
      5 C           7.9474    5.5084    5.6414 C.2     1  LIG1        0.0068
      6 H           7.9179    4.7009    6.1404 H       1  LIG1        0.0791
      7 C           7.2263    6.5902    6.0716 C.2     1  LIG1        0.0288
      8 C           7.2564    7.7790    5.3258 C.3     1  LIG1        0.1076
      9 C           8.0721    7.8164    4.1808 C.2     1  LIG1       -0.0454
     10 H           8.1373    8.6162    3.6723 H       1  LIG1        0.0603
     11 C           8.7742    6.7040    3.7978 C.2     1  LIG1       -0.0062
     12 H           9.3178    6.7322    3.0196 H       1  LIG1        0.0781
     13 C           6.4792    8.9107    5.7047 C.1     1  LIG1       -0.0786
     14 C           5.7883    9.8130    6.0675 C.1     1  LIG1       -0.0650
     15 C           4.9492   10.8418    6.6124 C.ar    1  LIG1        0.0261
     16 C           4.9253   12.1353    6.0824 C.ar    1  LIG1       -0.0463
     17 H           5.4562   12.3479    5.3231 H       1  LIG1        0.0630
     18 C           4.1226   13.1089    6.6663 C.ar    1  LIG1       -0.0594
     19 H           4.1012   13.9828    6.2955 H       1  LIG1        0.0618
     20 C           3.3596   12.8231    7.7749 C.ar    1  LIG1       -0.0463
     21 H           2.8172   13.4972    8.1687 H       1  LIG1        0.0630
     22 C           4.1705   10.5353    7.7358 C.ar    1  LIG1       -0.0309
     23 H           4.1767    9.6564    8.0959 H       1  LIG1        0.0642
     24 C           3.3856   11.5254    8.3225 C.ar    1  LIG1        0.0261
     25 C           2.5949   11.2088    9.4755 C.1     1  LIG1       -0.0650
     26 C           1.9348   10.9232   10.4277 C.1     1  LIG1       -0.0786
     27 C           1.0716   10.6310   11.5201 C.3     1  LIG1        0.1076
     28 C           0.3778   11.6758   12.1607 C.2     1  LIG1       -0.0454
     29 H           0.4972   12.5716   11.8707 H       1  LIG1        0.0603
     30 C          -0.4657   11.4044   13.1978 C.2     1  LIG1       -0.0062
     31 H          -0.9181   12.1151   13.6374 H       1  LIG1        0.0781
     32 C           0.8666    9.3209   11.9854 C.2     1  LIG1        0.0288
     33 C          -0.0091    9.0952   13.0279 C.2     1  LIG1        0.0068
     34 H          -0.1521    8.2107   13.3407 H       1  LIG1        0.0791
     35 C           9.3992    4.3385    4.0621 C.3     1  LIG1        0.0047
     36 H           9.7810    3.8717    4.8335 H       1  LIG1        0.0431
     37 H          10.1171    4.5864    3.4431 H       1  LIG1        0.0431
     38 H           8.7626    3.7498    3.6049 H       1  LIG1        0.0431
     39 C          -1.5830    9.8801   14.7393 C.3     1  LIG1        0.0047
     40 H          -1.2072   10.2693   15.5566 H       1  LIG1        0.0431
     41 H          -1.6976    8.9145   14.8607 H       1  LIG1        0.0431
     42 H          -2.4530   10.2911   14.5518 H       1  LIG1        0.0431
     43 CL          4.4025    5.5782   10.3702 Cl      2  LIG2        0.0000
     44 CL          5.4018   11.9216   12.6918 Cl      3  LIG3        0.0000
@<TRIPOS>BOND
     1    12    11    1
     2    37    35    1
     3    38    35    1
     4    10     9    1
     5    11     9    2
     6    11     3    1
     7    35     3    1
     8    35    36    1
     9     9     8    1
    10     3     5    1
    11    17    16    1
    12     8    13    1
    13     8     7    1
    14     5     7    2
    15     5     6    1
    16    13    14    3
    17    14    15    1
    18     7     1    1
    19    16    15   ar
    20    16    18   ar
    21    19    18    1
    22    15    22   ar
    23    18    20   ar
    24    22    23    1
    25    22    24   ar
    26    20    21    1
    27    20    24   ar
    28    24    25    1
    29    25    26    3
    30    26    27    1
    31     2    32    1
    32    27    32    1
    33    27    28    1
    34    29    28    1
    35    32    33    2
    36    28    30    2
    37    33    34    1
    38    33     4    1
    39    30     4    1
    40    30    31    1
    41     4    39    1
    42    42    39    1
    43    39    41    1
    44    39    40    1
