@<TRIPOS>MOLECULE
C9 H12 O5 S
 27 29 0 0 0
SMALL
GASTEIGER

@<TRIPOS>ATOM
      1 S           5.3740    3.4741    5.8149 S.2     1  LIG1        0.0318
      2 O           3.0897    4.5998    5.5381 O.3     1  LIG1       -0.4560
      3 O           2.6739    6.7354    7.4660 O.3     1  LIG1       -0.3381
      4 O           2.9219    8.8239    8.4054 O.3     1  LIG1       -0.3179
      5 O           4.1813    9.4155    6.6132 O.3     1  LIG1       -0.3371
      6 O           4.8962    6.0053    5.7530 O.3     1  LIG1       -0.4499
      7 C           4.3813    4.7828    5.6950 C.2     1  LIG1        0.3319
      8 C           2.1627    5.7071    5.3692 C.3     1  LIG1        0.1229
      9 H           1.2821    5.4585    5.7464 H       1  LIG1        0.0725
     10 H           2.0417    5.8892    4.4036 H       1  LIG1        0.0725
     11 C           2.6605    6.9391    6.0455 C.3     1  LIG1        0.1351
     12 H           2.0864    7.7230    5.8099 H       1  LIG1        0.0669
     13 C           3.5844    7.6511    8.0256 C.3     1  LIG1        0.1925
     14 H           4.0805    7.2474    8.7943 H       1  LIG1        0.0939
     15 C           3.4975    9.9579    7.7496 C.3     1  LIG1        0.1683
     16 C           2.3894   10.8517    7.2610 C.3     1  LIG1       -0.0107
     17 H           1.8340   10.3626    6.6186 H       1  LIG1        0.0281
     18 H           2.7743   11.6409    6.8256 H       1  LIG1        0.0281
     19 H           1.8384   11.1341    8.0207 H       1  LIG1        0.0281
     20 C           4.4719   10.6462    8.6685 C.3     1  LIG1       -0.0107
     21 H           5.1741   10.0154    8.9321 H       1  LIG1        0.0281
     22 H           4.0002   10.9622    9.4673 H       1  LIG1        0.0281
     23 H           4.8755   11.4090    8.2043 H       1  LIG1        0.0281
     24 C           4.5442    8.0778    6.8999 C.3     1  LIG1        0.1519
     25 H           5.5102    7.9670    7.1345 H       1  LIG1        0.0686
     26 C           4.1029    7.2253    5.7206 C.3     1  LIG1        0.1638
     27 H           4.2007    7.7105    4.8519 H       1  LIG1        0.0790
@<TRIPOS>BOND
     1    10     8    1
     2    27    26    1
     3     8     2    1
     4     8     9    1
     5     8    11    1
     6     2     7    1
     7     7     6    1
     8     7     1    2
     9    26     6    1
    10    26    11    1
    11    26    24    1
    12    12    11    1
    13    11     3    1
    14     5    24    1
    15     5    15    1
    16    17    16    1
    17    18    16    1
    18    24    25    1
    19    24    13    1
    20    16    15    1
    21    16    19    1
    22     3    13    1
    23    15     4    1
    24    15    20    1
    25    13     4    1
    26    13    14    1
    27    23    20    1
    28    20    21    1
    29    20    22    1
