@<TRIPOS>MOLECULE
1549621.cif
 60 66 0 0 0
SMALL
GASTEIGER

@<TRIPOS>ATOM
      1 O           4.1044   12.1536   -1.3169 O.3     1  LIG1       -0.4523
      2 N          -2.9785   10.5823    7.3846 N.ar    1  LIG1       -0.2436
      3 C          -2.6234    9.5959    6.5486 C.ar    1  LIG1        0.0904
      4 C          -1.7211    9.7845    5.5041 C.ar    1  LIG1       -0.0264
      5 H          -1.4934    9.0719    4.9512 H       1  LIG1        0.0645
      6 C           1.9011   12.3242   -0.3192 C.ar    1  LIG1        0.0813
      7 N           2.4445   12.0274    0.9402 N.pl3   1  LIG1       -0.2627
      8 C          -2.4397   11.7964    7.1878 C.ar    1  LIG1        0.0904
      9 C          -1.1613   11.0414    5.2887 C.ar    1  LIG1       -0.0137
     10 C          -0.2067   11.2912    4.1686 C.ar    1  LIG1       -0.0176
     11 C          -1.5364   12.0589    6.1572 C.ar    1  LIG1       -0.0264
     12 H          -1.1861   12.9135    6.0513 H       1  LIG1        0.0645
     13 C          -3.2585    8.2688    6.7895 C.ar    1  LIG1        0.0891
     14 C           3.7820   11.5940    1.0222 C.ar    1  LIG1        0.0813
     15 N          -2.3853   14.0998    7.8779 N.ar    1  LIG1       -0.2534
     16 C           2.7444   12.3633   -1.4300 C.ar    1  LIG1        0.1501
     17 C          -2.8789   12.8732    8.1099 C.ar    1  LIG1        0.0891
     18 C           0.9510   10.5489    2.1867 C.ar    1  LIG1       -0.0394
     19 H           1.1271    9.8739    1.5720 H       1  LIG1        0.0636
     20 C           0.4185   12.5182    4.0103 C.ar    1  LIG1       -0.0523
     21 H           0.2475   13.1971    4.6221 H       1  LIG1        0.0624
     22 C           4.5885   11.6693   -0.1150 C.ar    1  LIG1        0.1501
     23 C           1.2941   12.7553    2.9593 C.ar    1  LIG1       -0.0394
     24 H           1.7064   13.5844    2.8788 H       1  LIG1        0.0636
     25 C           1.5521   11.7771    2.0432 C.ar    1  LIG1        0.0390
     26 C           4.3500   11.0976    2.1783 C.ar    1  LIG1       -0.0364
     27 H           3.8356   11.0318    2.9508 H       1  LIG1        0.0637
     28 C          -4.3354    8.1467    7.6540 C.ar    1  LIG1       -0.0342
     29 H          -4.6748    8.8920    8.0924 H       1  LIG1        0.0639
     30 N          -2.7511    7.2223    6.1357 N.ar    1  LIG1       -0.2534
     31 C           5.9047   11.2738   -0.0838 C.ar    1  LIG1       -0.0175
     32 H           6.4242   11.3389   -0.8526 H       1  LIG1        0.0655
     33 C          -3.7632   12.6195    9.1490 C.ar    1  LIG1       -0.0342
     34 H          -4.0868   11.7595    9.2958 H       1  LIG1        0.0639
     35 C           2.2577   12.6577   -2.6812 C.ar    1  LIG1       -0.0175
     36 H           2.8311   12.6592   -3.4132 H       1  LIG1        0.0655
     37 C           0.0859   10.3095    3.2405 C.ar    1  LIG1       -0.0523
     38 H          -0.3065    9.4710    3.3262 H       1  LIG1        0.0624
     39 C           6.4571   10.7856    1.0718 C.ar    1  LIG1       -0.0582
     40 H           7.3472   10.5174    1.0906 H       1  LIG1        0.0619
     41 C           0.5621   12.6289   -0.5192 C.ar    1  LIG1       -0.0364
     42 H          -0.0217   12.6201    0.2040 H       1  LIG1        0.0637
     43 C           5.6807   10.6954    2.2035 C.ar    1  LIG1       -0.0598
     44 H           6.0484   10.3629    2.9903 H       1  LIG1        0.0618
     45 C          -4.8959    6.9019    7.8532 C.ar    1  LIG1       -0.0583
     46 H          -5.6201    6.7991    8.4283 H       1  LIG1        0.0619
     47 C          -2.7783   15.0862    8.6819 C.ar    1  LIG1        0.0283
     48 H          -2.4366   15.9375    8.5302 H       1  LIG1        0.0830
     49 C          -4.1539   13.6658    9.9590 C.ar    1  LIG1       -0.0583
     50 H          -4.7483   13.5199   10.6584 H       1  LIG1        0.0619
     51 C           0.9249   12.9489   -2.8565 C.ar    1  LIG1       -0.0582
     52 H           0.5969   13.1463   -3.7042 H       1  LIG1        0.0619
     53 C          -4.3777    5.8224    7.1990 C.ar    1  LIG1       -0.0436
     54 H          -4.7367    4.9722    7.3186 H       1  LIG1        0.0633
     55 C          -3.3101    6.0264    6.3604 C.ar    1  LIG1        0.0283
     56 H          -2.9535    5.2890    5.9207 H       1  LIG1        0.0830
     57 C          -3.6585   14.9176    9.7231 C.ar    1  LIG1       -0.0436
     58 H          -3.9109   15.6382   10.2545 H       1  LIG1        0.0633
     59 C           0.0817   12.9460   -1.7736 C.ar    1  LIG1       -0.0598
     60 H          -0.8171   13.1580   -1.8861 H       1  LIG1        0.0618
@<TRIPOS>BOND
     1    52    51    1
     2    36    35    1
     3    51    35   ar
     4    51    59   ar
     5    35    16   ar
     6    60    59    1
     7    59    41   ar
     8    16     1    1
     9    16     6   ar
    10     1    22    1
    11    32    31    1
    12    41     6   ar
    13    41    42    1
    14     6     7    1
    15    22    31   ar
    16    22    14   ar
    17    31    39   ar
    18     7    14    1
    19     7    25    1
    20    14    26   ar
    21    39    40    1
    22    39    43   ar
    23    19    18    1
    24    25    18   ar
    25    25    23   ar
    26    26    43   ar
    27    26    27    1
    28    18    37   ar
    29    43    44    1
    30    24    23    1
    31    23    20   ar
    32    37    38    1
    33    37    10   ar
    34    20    10   ar
    35    20    21    1
    36    10     9    1
    37     5     4    1
    38     9     4   ar
    39     9    11   ar
    40     4     3   ar
    41    56    55    1
    42    12    11    1
    43    30    55   ar
    44    30    13   ar
    45    11     8   ar
    46    55    53   ar
    47     3    13    1
    48     3     2   ar
    49    13    28   ar
    50     8     2   ar
    51     8    17    1
    52    53    54    1
    53    53    45   ar
    54    28    45   ar
    55    28    29    1
    56    45    46    1
    57    15    17   ar
    58    15    47   ar
    59    17    33   ar
    60    48    47    1
    61    47    57   ar
    62    33    34    1
    63    33    49   ar
    64    57    49   ar
    65    57    58    1
    66    49    50    1
