@<TRIPOS>MOLECULE
1549814.cif
 109 113 0 0 0
SMALL
GASTEIGER

@<TRIPOS>ATOM
      1 B           1.4427    8.9418    2.7059 B       1  LIG1        0.0000
      2 C           8.7110    4.0729    5.2130 C.3     2  LIG2        0.0000
      3 N           8.1783    5.1802    4.2953 N.4     2  LIG2        0.0000
      4 O           1.4479    7.9733    1.5111 O.2     1  LIG1        0.0000
      5 B           1.4815   12.2195   10.3979 B       3  LIG3        0.0000
      6 C           8.6330    2.7411    4.4628 C.3     2  LIG2        0.0000
      7 H           9.1743    2.0704    4.9506 H       2  LIG2        0.0000
      8 H           7.6936    2.4279    4.4687 H       2  LIG2        0.0000
      9 O           0.3340   13.1242    9.9404 O.2     3  LIG3        0.0000
     10 C           9.1163    2.8064    3.0276 C.3     2  LIG2        0.0000
     11 H           9.0305    1.9132    2.6095 H       2  LIG2        0.0000
     12 H          10.0717    3.0626    3.0113 H       2  LIG2        0.0000
     13 O           7.5906    6.0878    4.8053 O.3     2  LIG2        0.0000
     14 C           8.3099    3.8155    2.2329 C.3     2  LIG2        0.0000
     15 H           7.3623    3.5297    2.2225 H       2  LIG2        0.0000
     16 H           8.6338    3.8167    1.2973 H       2  LIG2        0.0000
     17 C           8.3887    5.2388    2.7830 C.3     2  LIG2        0.0000
     18 C          10.1582    4.4941    5.5481 C.3     2  LIG2        0.0000
     19 H          10.4787    3.9782    6.3161 H       2  LIG2        0.0000
     20 H          10.1774    5.4504    5.7661 H       2  LIG2        0.0000
     21 H          10.7358    4.3229    4.7757 H       2  LIG2        0.0000
     22 C           7.8609    4.0748    6.4748 C.3     2  LIG2        0.0000
     23 H           6.9184    3.9638    6.2331 H       2  LIG2        0.0000
     24 H           7.9804    4.9246    6.9477 H       2  LIG2        0.0000
     25 H           8.1377    3.3350    7.0560 H       2  LIG2        0.0000
     26 C           9.7918    5.8466    2.5783 C.3     2  LIG2        0.0000
     27 H           9.9048    6.0970    1.6383 H       2  LIG2        0.0000
     28 H          10.4730    5.1857    2.8245 H       2  LIG2        0.0000
     29 H           9.8890    6.6417    3.1432 H       2  LIG2        0.0000
     30 C           7.3248    6.1577    2.2018 C.3     2  LIG2        0.0000
     31 H           7.3949    6.1609    1.2247 H       2  LIG2        0.0000
     32 H           7.4586    7.0671    2.5413 H       2  LIG2        0.0000
     33 H           6.4378    5.8372    2.4642 H       2  LIG2        0.0000
     34 C           2.3426    8.1708    3.8460 C.ar    1  LIG1        0.0000
     35 C           3.6402    8.4918    4.2241 C.ar    1  LIG1        0.0000
     36 F           4.2570    9.5776    3.7157 F       1  LIG1        0.0000
     37 C           4.3935    7.7401    5.1137 C.ar    1  LIG1        0.0000
     38 F           5.6513    8.1051    5.4310 F       1  LIG1        0.0000
     39 C           3.8445    6.6253    5.6934 C.ar    1  LIG1        0.0000
     40 F           4.5714    5.8917    6.5666 F       1  LIG1        0.0000
     41 C           2.5685    6.2663    5.3732 C.ar    1  LIG1        0.0000
     42 F           2.0054    5.1744    5.9333 F       1  LIG1        0.0000
     43 C           1.8627    7.0156    4.4554 C.ar    1  LIG1        0.0000
     44 F           0.6235    6.5672    4.1520 F       1  LIG1        0.0000
     45 C           1.8914   10.4714    2.3085 C.ar    1  LIG1        0.0000
     46 C           2.0084   11.4150    3.3167 C.ar    1  LIG1        0.0000
     47 F           1.8919   11.0218    4.6093 F       1  LIG1        0.0000
     48 C           2.2107   12.7586    3.1017 C.ar    1  LIG1        0.0000
     49 F           2.2927   13.6221    4.1457 F       1  LIG1        0.0000
     50 C           2.3179   13.2215    1.8252 C.ar    1  LIG1        0.0000
     51 F           2.5159   14.5326    1.5924 F       1  LIG1        0.0000
     52 C           2.2172   12.3470    0.7725 C.ar    1  LIG1        0.0000
     53 F           2.3414   12.7731   -0.4911 F       1  LIG1        0.0000
     54 C           1.9983   11.0047    1.0379 C.ar    1  LIG1        0.0000
     55 F           1.8842   10.2051   -0.0663 F       1  LIG1        0.0000
     56 C          -0.1488    9.0957    3.1032 C.ar    1  LIG1        0.0000
     57 C          -0.6891    9.1344    4.3783 C.ar    1  LIG1        0.0000
     58 F           0.0996    8.9817    5.4688 F       1  LIG1        0.0000
     59 C          -2.0322    9.3125    4.6541 C.ar    1  LIG1        0.0000
     60 F          -2.4720    9.3112    5.9300 F       1  LIG1        0.0000
     61 C          -2.9221    9.4905    3.6281 C.ar    1  LIG1        0.0000
     62 F          -4.2351    9.6480    3.8620 F       1  LIG1        0.0000
     63 C          -2.4526    9.4787    2.3411 C.ar    1  LIG1        0.0000
     64 F          -3.3058    9.6024    1.2997 F       1  LIG1        0.0000
     65 C          -1.1024    9.3019    2.1158 C.ar    1  LIG1        0.0000
     66 F          -0.7219    9.3370    0.8122 F       1  LIG1        0.0000
     67 C           2.4790    7.5880    0.8051 C.2     1  LIG1        0.0000
     68 C           2.2584    6.5345   -0.1260 C.2     1  LIG1        0.0000
     69 H           1.3900    6.1574   -0.2061 H       1  LIG1        0.0000
     70 C           3.2694    6.0560   -0.9074 C.3     1  LIG1        0.0000
     71 H           3.1039    5.3489   -1.5197 H       1  LIG1        0.0000
     72 C           2.0338   12.9488   11.7456 C.ar    3  LIG3        0.0000
     73 C           3.3752   13.1460   12.0763 C.ar    3  LIG3        0.0000
     74 F           4.3542   12.7275   11.2386 F       3  LIG3        0.0000
     75 C           3.7933   13.7273   13.2550 C.ar    3  LIG3        0.0000
     76 F           5.1044   13.8838   13.5093 F       3  LIG3        0.0000
     77 C           2.8618   14.1597   14.1639 C.ar    3  LIG3        0.0000
     78 F           3.2455   14.7716   15.3014 F       3  LIG3        0.0000
     79 C           1.5375   14.0029   13.8762 C.ar    3  LIG3        0.0000
     80 F           0.5985   14.4285   14.7651 F       3  LIG3        0.0000
     81 C           1.1459   13.3904   12.7212 C.ar    3  LIG3        0.0000
     82 F          -0.1810   13.2259   12.5383 F       3  LIG3        0.0000
     83 C           0.9221   10.7465   10.8457 C.ar    3  LIG3        0.0000
     84 C           1.7766    9.8793   11.5203 C.ar    3  LIG3        0.0000
     85 F           3.0742   10.2254   11.6524 F       3  LIG3        0.0000
     86 C           1.4123    8.6677   12.0525 C.ar    3  LIG3        0.0000
     87 F           2.3033    7.8945   12.6972 F       3  LIG3        0.0000
     88 C           0.1165    8.2273   11.8820 C.ar    3  LIG3        0.0000
     89 F          -0.2820    7.0373   12.3629 F       3  LIG3        0.0000
     90 C          -0.7598    9.0283   11.1911 C.ar    3  LIG3        0.0000
     91 F          -2.0218    8.5787   10.9758 F       3  LIG3        0.0000
     92 C          -0.3679   10.2625   10.7196 C.ar    3  LIG3        0.0000
     93 F          -1.3408   10.9744   10.1091 F       3  LIG3        0.0000
     94 C           2.5446   12.2379    9.1569 C.ar    3  LIG3        0.0000
     95 C           2.9059   13.4581    8.5994 C.ar    3  LIG3        0.0000
     96 F           2.5565   14.6063    9.2297 F       3  LIG3        0.0000
     97 C           3.5675   13.6013    7.4089 C.ar    3  LIG3        0.0000
     98 F           3.8432   14.8311    6.9190 F       3  LIG3        0.0000
     99 C           3.9760   12.4814    6.7179 C.ar    3  LIG3        0.0000
    100 F           4.6435   12.5932    5.5615 F       3  LIG3        0.0000
    101 C           3.7103   11.2587    7.2487 C.ar    3  LIG3        0.0000
    102 F           4.1316   10.1436    6.6176 F       3  LIG3        0.0000
    103 C           3.0031   11.1474    8.4334 C.ar    3  LIG3        0.0000
    104 F           2.6972    9.8902    8.8201 F       3  LIG3        0.0000
    105 C          -0.1263   13.1709    8.7225 C.2     3  LIG3        0.0000
    106 C          -0.7418   14.3963    8.3148 C.2     3  LIG3        0.0000
    107 H          -0.8549   15.0967    8.9479 H       3  LIG3        0.0000
    108 C          -1.1646   14.5737    7.0501 C.3     3  LIG3        0.0000
    109 H          -1.5308   15.4087    6.7861 H       3  LIG3        0.0000
@<TRIPOS>BOND
     1    71    70    1
     2    70    68    1
     3    53    52    1
     4    69    68    1
     5    68    67    2
     6    55    54    1
     7    52    54   ar
     8    52    50   ar
     9    67     4    1
    10    66    65    1
    11    54    45   ar
    12    31    30    1
    13    16    14    1
    14    64    63    1
    15     4     1    1
    16    51    50    1
    17    27    26    1
    18    50    48   ar
    19    65    63   ar
    20    65    56   ar
    21    30    33    1
    22    30    32    1
    23    30    17    1
    24    15    14    1
    25    14    17    1
    26    14    10    1
    27    45     1    1
    28    45    46   ar
    29    63    61   ar
    30    26    17    1
    31    26    28    1
    32    26    29    1
    33    11    10    1
    34     1    56    1
    35     1    34    1
    36    17     3    1
    37    12    10    1
    38    10     6    1
    39    48    46   ar
    40    48    49    1
    41    56    57   ar
    42    46    47    1
    43    61    62    1
    44    61    59   ar
    45    36    35    1
    46    34    35   ar
    47    34    43   ar
    48    44    43    1
    49    35    37   ar
    50     3    13    1
    51     3     2    1
    52    57    59   ar
    53    57    58    1
    54    43    41   ar
    55     6     8    1
    56     6     7    1
    57     6     2    1
    58    59    60    1
    59    21    18    1
    60    37    38    1
    61    37    39   ar
    62     2    18    1
    63     2    22    1
    64    41    39   ar
    65    41    42    1
    66    18    20    1
    67    18    19    1
    68   100    99    1
    69    39    40    1
    70    23    22    1
    71    22    24    1
    72    22    25    1
    73   102   101    1
    74    99   101   ar
    75    99    97   ar
    76   109   108    1
    77    98    97    1
    78   108   106    1
    79   101   103   ar
    80    97    95   ar
    81   106   105    2
    82   106   107    1
    83   103   104    1
    84   103    94   ar
    85    95    94   ar
    86    95    96    1
    87   105     9    1
    88    94     5    1
    89     9     5    1
    90    93    92    1
    91     5    83    1
    92     5    72    1
    93    92    83   ar
    94    92    90   ar
    95    83    84   ar
    96    91    90    1
    97    90    88   ar
    98    74    73    1
    99    84    85    1
   100    84    86   ar
   101    72    73   ar
   102    72    81   ar
   103    88    86   ar
   104    88    89    1
   105    86    87    1
   106    73    75   ar
   107    82    81    1
   108    81    79   ar
   109    75    76    1
   110    75    77   ar
   111    79    77   ar
   112    79    80    1
   113    77    78    1
