@<TRIPOS>MOLECULE
1550303.cif
 80 88 0 0 0
SMALL
GASTEIGER

@<TRIPOS>ATOM
      1 B           3.7845    2.1506    9.4892 B       1  LIG1        0.0000
      2 C           3.0380    3.1167   10.5955 C.ar    1  LIG1        0.0000
      3 N           5.4217    2.5514    9.5871 N.ar    1  LIG1        0.0000
      4 S           7.6169    3.8095    9.3254 S.2     1  LIG1        0.0000
      5 C           2.1743    2.5743   11.5589 C.ar    1  LIG1        0.0000
      6 H           2.0967    1.6290   11.6136 H       1  LIG1        0.0000
      7 N           4.2975    6.6073    7.8475 N.ar    1  LIG1        0.0000
      8 C           1.4294    3.3461   12.4343 C.ar    1  LIG1        0.0000
      9 H           0.8467    2.9311   13.0583 H       1  LIG1        0.0000
     10 C           1.5372    4.7179   12.3969 C.ar    1  LIG1        0.0000
     11 H           1.0354    5.2550   12.9983 H       1  LIG1        0.0000
     12 C           2.3802    5.3040   11.4786 C.ar    1  LIG1        0.0000
     13 H           2.4692    6.2497   11.4592 H       1  LIG1        0.0000
     14 C           3.1117    4.5207   10.5689 C.ar    1  LIG1        0.0000
     15 C           3.8455    5.2278    9.5142 C.ar    1  LIG1        0.0000
     16 C           5.1095    4.9123    8.9647 C.ar    1  LIG1        0.0000
     17 C           5.9096    3.7613    9.3191 C.ar    1  LIG1        0.0000
     18 C           6.4469    1.6415    9.7917 C.ar    1  LIG1        0.0000
     19 H           6.2830    0.7273    9.9927 H       1  LIG1        0.0000
     20 C           7.6819    2.1430    9.6869 C.ar    1  LIG1        0.0000
     21 H           8.4815    1.6432    9.7983 H       1  LIG1        0.0000
     22 C           5.3994    5.8170    7.9178 C.ar    1  LIG1        0.0000
     23 C           6.1988    6.1925    6.7765 C.ar    1  LIG1        0.0000
     24 C           7.4557    5.8078    6.3147 C.ar    1  LIG1        0.0000
     25 H           7.9659    5.1620    6.7890 H       1  LIG1        0.0000
     26 C           7.9437    6.3766    5.1634 C.ar    1  LIG1        0.0000
     27 H           8.8029    6.1218    4.8501 H       1  LIG1        0.0000
     28 C           7.2079    7.3199    4.4443 C.ar    1  LIG1        0.0000
     29 H           7.5636    7.6798    3.6416 H       1  LIG1        0.0000
     30 C           5.9783    7.7323    4.8810 C.ar    1  LIG1        0.0000
     31 H           5.4824    8.3799    4.3940 H       1  LIG1        0.0000
     32 C           5.4688    7.1831    6.0536 C.ar    1  LIG1        0.0000
     33 C           4.2283    7.4290    6.7496 C.ar    1  LIG1        0.0000
     34 C           3.0611    8.1373    6.6276 C.ar    1  LIG1        0.0000
     35 H           2.9399    8.7468    5.9095 H       1  LIG1        0.0000
     36 C           2.0487    7.9509    7.5759 C.ar    1  LIG1        0.0000
     37 H           1.2515    8.4613    7.4923 H       1  LIG1        0.0000
     38 C           2.1532    7.0607    8.6262 C.ar    1  LIG1        0.0000
     39 H           1.4352    6.9538    9.2386 H       1  LIG1        0.0000
     40 C           3.3337    6.3170    8.7767 C.ar    1  LIG1        0.0000
     41 C           3.3783    2.6251    7.9467 C.ar    1  LIG1        0.0000
     42 C           2.1499    3.2728    7.6622 C.ar    1  LIG1        0.0000
     43 C           1.9841    4.0030    6.4857 C.ar    1  LIG1        0.0000
     44 H           1.1563    4.4425    6.3347 H       1  LIG1        0.0000
     45 C           2.9670    4.1143    5.5375 C.ar    1  LIG1        0.0000
     46 C           4.0908    3.3564    5.7332 C.ar    1  LIG1        0.0000
     47 H           4.7605    3.3561    5.0609 H       1  LIG1        0.0000
     48 C           4.2918    2.5897    6.8717 C.ar    1  LIG1        0.0000
     49 C           5.5060    1.6755    6.8546 C.3     1  LIG1        0.0000
     50 H           5.6205    1.3008    5.9567 H       1  LIG1        0.0000
     51 H           5.3765    0.9482    7.4977 H       1  LIG1        0.0000
     52 H           6.3055    2.1896    7.0979 H       1  LIG1        0.0000
     53 C           2.7663    4.9760    4.3122 C.3     1  LIG1        0.0000
     54 H           2.1826    5.7317    4.5357 H       1  LIG1        0.0000
     55 H           2.3523    4.4425    3.6017 H       1  LIG1        0.0000
     56 H           3.6318    5.3132    4.0051 H       1  LIG1        0.0000
     57 C           0.9429    3.1778    8.5571 C.3     1  LIG1        0.0000
     58 H           0.9139    3.9581    9.1495 H       1  LIG1        0.0000
     59 H           0.9996    2.3614    9.0950 H       1  LIG1        0.0000
     60 H           0.1312    3.1533    8.0083 H       1  LIG1        0.0000
     61 C           3.6668    0.5767    9.9502 C.ar    1  LIG1        0.0000
     62 C           4.1579    0.1598   11.2191 C.ar    1  LIG1        0.0000
     63 C           4.0044   -1.1509   11.6638 C.ar    1  LIG1        0.0000
     64 H           4.3554   -1.3913   12.5132 H       1  LIG1        0.0000
     65 C           3.3603   -2.1125   10.9133 C.ar    1  LIG1        0.0000
     66 C           2.8621   -1.7260    9.6883 C.ar    1  LIG1        0.0000
     67 H           2.4130   -2.3705    9.1550 H       1  LIG1        0.0000
     68 C           2.9911   -0.4223    9.1975 C.ar    1  LIG1        0.0000
     69 C           2.3424   -0.1776    7.8553 C.3     1  LIG1        0.0000
     70 H           1.9747   -1.0192    7.5123 H       1  LIG1        0.0000
     71 H           3.0120    0.1679    7.2270 H       1  LIG1        0.0000
     72 H           1.6196    0.4767    7.9556 H       1  LIG1        0.0000
     73 C           3.1706   -3.5231   11.4346 C.3     1  LIG1        0.0000
     74 H           3.7764   -3.6765   12.1897 H       1  LIG1        0.0000
     75 H           3.3675   -4.1648   10.7214 H       1  LIG1        0.0000
     76 H           2.2427   -3.6390   11.7318 H       1  LIG1        0.0000
     77 C           4.8558    1.0700   12.2235 C.3     1  LIG1        0.0000
     78 H           4.3968    1.0166   13.0874 H       1  LIG1        0.0000
     79 H           4.8323    1.9945   11.8989 H       1  LIG1        0.0000
     80 H           5.7872    0.7854   12.3296 H       1  LIG1        0.0000
@<TRIPOS>BOND
     1    55    53    1
     2    29    28    1
     3    56    53    1
     4    53    54    1
     5    53    45    1
     6    31    30    1
     7    28    30   ar
     8    28    26   ar
     9    27    26    1
    10    30    32   ar
    11    47    46    1
    12    26    24   ar
    13    45    46   ar
    14    45    43   ar
    15    46    48   ar
    16    35    34    1
    17    50    49    1
    18    32    33   ar
    19    32    23   ar
    20    24    23   ar
    21    24    25    1
    22    44    43    1
    23    43    42   ar
    24    34    33   ar
    25    34    36   ar
    26    33     7   ar
    27    23    22   ar
    28    49    48    1
    29    49    52    1
    30    49    51    1
    31    48    41   ar
    32    71    69    1
    33    37    36    1
    34    70    69    1
    35    36    38   ar
    36    42    41   ar
    37    42    57    1
    38     7    22   ar
    39     7    40   ar
    40    69    72    1
    41    69    68    1
    42    22    16   ar
    43    41     1    1
    44    60    57    1
    45    57    59    1
    46    57    58    1
    47    38    40   ar
    48    38    39    1
    49    40    15   ar
    50    16    17    1
    51    16    15   ar
    52    67    66    1
    53    68    66   ar
    54    68    61   ar
    55    17     4   ar
    56    17     3   ar
    57     4    20   ar
    58     1     3    1
    59     1    61    1
    60     1     2    1
    61    15    14    1
    62     3    18   ar
    63    20    18   ar
    64    20    21    1
    65    66    65   ar
    66    18    19    1
    67    61    62   ar
    68    14     2   ar
    69    14    12   ar
    70     2     5   ar
    71    75    73    1
    72    65    73    1
    73    65    63   ar
    74    62    63   ar
    75    62    77    1
    76    73    76    1
    77    73    74    1
    78    13    12    1
    79    12    10   ar
    80     5     6    1
    81     5     8   ar
    82    63    64    1
    83    79    77    1
    84    77    80    1
    85    77    78    1
    86    10     8   ar
    87    10    11    1
    88     8     9    1
