@<TRIPOS>MOLECULE
C30 H18 Br2 N2
 28 29 0 0 0
SMALL
GASTEIGER

@<TRIPOS>ATOM
      1 BR         -3.4449   13.1559    8.2125 Br      1  LIG1       -0.0502
      2 C          -0.1736   15.6310    4.1244 C.2     1  LIG1        0.0767
      3 C           0.1241   16.3243    5.2832 C.2     1  LIG1       -0.0350
      4 H           0.3251   15.8596    6.0632 H       1  LIG1        0.0638
      5 C           0.1235   17.7086    5.2850 C.2     1  LIG1       -0.0350
      6 H           0.3226   18.1722    6.0662 H       1  LIG1        0.0638
      7 C          -0.1736   18.4037    4.1244 C.2     1  LIG1        0.0767
      8 N          -0.1736   14.2102    4.1244 N.pl3   1  LIG1       -0.2124
      9 C          -0.8855   13.3904    5.0004 C.ar    1  LIG1        0.0626
     10 C          -1.7452   13.7523    6.0242 C.ar    1  LIG1       -0.0241
     11 H          -1.9310   14.6429    6.2169 H       1  LIG1        0.0648
     12 C          -2.3110   12.7200    6.7419 C.ar    1  LIG1        0.0197
     13 C          -2.0623   11.3809    6.4774 C.ar    1  LIG1       -0.0471
     14 H          -2.4583   10.7165    6.9935 H       1  LIG1        0.0629
     15 C          -1.2202   11.0502    5.4399 C.ar    1  LIG1       -0.0511
     16 H          -1.0516   10.1565    5.2455 H       1  LIG1        0.0625
     17 C          -0.6240   12.0464    4.6851 C.ar    1  LIG1        0.0070
     18 N          -0.1736   19.8245    4.1244 N.pl3   1  LIG1       -0.2125
     19 C           0.5266   20.6401    3.2338 C.ar    1  LIG1        0.0615
     20 C           1.3839   20.2926    2.2031 C.ar    1  LIG1       -0.0381
     21 H           1.5601   19.4015    2.0036 H       1  LIG1        0.0637
     22 C           1.9652   21.3101    1.4853 C.ar    1  LIG1       -0.0599
     23 H           2.5478   21.1001    0.7912 H       1  LIG1        0.0618
     24 C           1.7041   22.6463    1.7710 C.ar    1  LIG1       -0.0611
     25 H           2.0989   23.3125    1.2562 H       1  LIG1        0.0618
     26 C           0.8720   22.9905    2.8019 C.ar    1  LIG1       -0.0521
     27 H           0.7091   23.8857    2.9946 H       1  LIG1        0.0624
     28 C           0.2701   21.9865    3.5611 C.ar    1  LIG1        0.0069
@<TRIPOS>BOND
     1    23    22    1
     2    25    24    1
     3    22    24   ar
     4    22    20   ar
     5    24    26   ar
     6    21    20    1
     7    20    19   ar
     8    26    27    1
     9    26    28   ar
    10    19    28   ar
    11    19    18    1
    12     8     2    1
    13     8     9    1
    14     7    18    1
    15     7     5    2
    16     2     3    2
    17    17     9   ar
    18    17    15   ar
    19     9    10   ar
    20    16    15    1
    21     3     5    1
    22     3     4    1
    23     5     6    1
    24    15    13   ar
    25    10    11    1
    26    10    12   ar
    27    13    12   ar
    28    13    14    1
    29    12     1    1
