@<TRIPOS>MOLECULE
?
 27 28 0 0 0
SMALL
GASTEIGER

@<TRIPOS>ATOM
      1 S           0.0931    9.5876    3.6999 S.3     1  LIG1       -0.0112
      2 O          -1.0271    8.0529    5.5375 O.2     1  LIG1       -0.2840
      3 N           3.0983    7.9540    3.9709 N.3     1  LIG1       -0.2812
      4 N           1.7565    6.8331    2.4518 N.3     1  LIG1       -0.2843
      5 C          -0.0874    8.2550    4.7523 C.2     1  LIG1        0.2063
      6 C           1.9841    7.3262    3.6459 C.3     1  LIG1        0.1190
      7 C           4.0682    8.3770    2.9677 C.3     1  LIG1        0.0018
      8 H           4.9510    8.4381    3.3647 H       1  LIG1        0.0427
      9 H           3.8277    9.2498    2.6206 H       1  LIG1        0.0427
     10 C           2.6610    7.1198    1.3379 C.3     1  LIG1        0.0015
     11 H           2.3516    7.9083    0.8641 H       1  LIG1        0.0427
     12 H           2.6564    6.3752    0.7171 H       1  LIG1        0.0427
     13 C           1.0642    7.2443    4.8485 C.3     1  LIG1        0.0647
     14 H           0.7250    6.3337    4.9718 H       1  LIG1        0.0419
     15 C           4.0747    7.3530    1.8419 C.3     1  LIG1       -0.0273
     16 H           4.6307    7.6728    1.1140 H       1  LIG1        0.0290
     17 H           4.4475    6.5181    2.1631 H       1  LIG1        0.0290
     18 C           3.1149    8.4637    5.3449 C.3     1  LIG1        0.0014
     19 H           2.9049    9.4109    5.3709 H       1  LIG1        0.0427
     20 H           3.9773    8.3172    5.7646 H       1  LIG1        0.0427
     21 C           0.4610    6.2276    2.1371 C.3     1  LIG1       -0.0110
     22 H          -0.0366    6.0969    2.9483 H       1  LIG1        0.0391
     23 H           0.6000    5.3804    1.7077 H       1  LIG1        0.0391
     24 H          -0.0297    6.8086    1.5509 H       1  LIG1        0.0391
     25 C           2.0367    7.6459    6.0122 C.3     1  LIG1       -0.0267
     26 H           2.4134    6.8586    6.4340 H       1  LIG1        0.0286
     27 H           1.5725    8.1708    6.6839 H       1  LIG1        0.0286
@<TRIPOS>BOND
     1    12    10    1
     2    11    10    1
     3    16    15    1
     4    10    15    1
     5    10     4    1
     6    24    21    1
     7    23    21    1
     8    15    17    1
     9    15     7    1
    10    21     4    1
    11    21    22    1
    12     4     6    1
    13     9     7    1
    14     7     8    1
    15     7     3    1
    16     6     3    1
    17     6    13    1
    18     1     5    1
    19     3    18    1
    20     5    13    1
    21     5     2    2
    22    13    14    1
    23    13    25    1
    24    18    19    1
    25    18    20    1
    26    18    25    1
    27    25    26    1
    28    25    27    1
