@<TRIPOS>MOLECULE
?
 43 46 0 0 0
SMALL
GASTEIGER

@<TRIPOS>ATOM
      1 S           9.2671   -0.2694    4.7904 S.2     1  LIG1       -0.0857
      2 O          11.8425   -1.9863    4.6751 O.2     1  LIG1       -0.2952
      3 N           3.2684    2.8124    5.6145 N.pl3   1  LIG1       -0.2692
      4 C          11.9956   -0.7839    4.7680 C.2     1  LIG1        0.1568
      5 H          12.8881   -0.4580    4.7805 H       1  LIG1        0.1087
      6 C          10.9295    0.1918    4.8613 C.ar    1  LIG1        0.0519
      7 C          11.0628    1.5472    5.0510 C.ar    1  LIG1       -0.0438
      8 H          11.9027    1.9893    5.1052 H       1  LIG1        0.0630
      9 C           9.8304    2.2097    5.1560 C.ar    1  LIG1       -0.0463
     10 H           9.7469    3.1456    5.2966 H       1  LIG1        0.0629
     11 C           8.7495    1.3582    5.0343 C.ar    1  LIG1        0.0200
     12 C           4.6053    2.3962    5.3841 C.ar    1  LIG1        0.0388
     13 C           4.9909    1.0581    5.3280 C.ar    1  LIG1       -0.0394
     14 H           4.3344    0.3737    5.3890 H       1  LIG1        0.0636
     15 C           6.3287    0.7222    5.1831 C.ar    1  LIG1       -0.0518
     16 H           6.5739   -0.1938    5.1276 H       1  LIG1        0.0624
     17 C           7.3273    1.7039    5.1171 C.ar    1  LIG1       -0.0112
     18 C           6.9260    3.0417    5.1572 C.ar    1  LIG1       -0.0518
     19 H           7.5795    3.7277    5.0986 H       1  LIG1        0.0624
     20 C           5.5943    3.3819    5.2807 C.ar    1  LIG1       -0.0394
     21 H           5.3453    4.2979    5.2953 H       1  LIG1        0.0636
     22 C           2.1554    2.1002    5.1100 C.ar    1  LIG1        0.0388
     23 C           2.2559    1.3594    3.9322 C.ar    1  LIG1       -0.0400
     24 H           3.0773    1.3461    3.4541 H       1  LIG1        0.0636
     25 C           1.1671    0.6412    3.4510 C.ar    1  LIG1       -0.0600
     26 H           1.2548    0.1281    2.6569 H       1  LIG1        0.0618
     27 C          -0.0509    0.6684    4.1234 C.ar    1  LIG1       -0.0616
     28 H          -0.7953    0.1779    3.7959 H       1  LIG1        0.0618
     29 C          -0.1573    1.4225    5.2776 C.ar    1  LIG1       -0.0600
     30 H          -0.9876    1.4556    5.7374 H       1  LIG1        0.0618
     31 C           0.9269    2.1327    5.7795 C.ar    1  LIG1       -0.0400
     32 H           0.8341    2.6411    6.5768 H       1  LIG1        0.0636
     33 C           3.0892    3.7808    6.6537 C.ar    1  LIG1        0.0388
     34 C           3.7110    3.5784    7.8843 C.ar    1  LIG1       -0.0400
     35 H           4.2340    2.7991    8.0300 H       1  LIG1        0.0636
     36 C           3.5669    4.5136    8.8960 C.ar    1  LIG1       -0.0600
     37 H           3.9994    4.3749    9.7300 H       1  LIG1        0.0618
     38 C           2.7992    5.6460    8.7041 C.ar    1  LIG1       -0.0616
     39 H           2.6931    6.2773    9.4053 H       1  LIG1        0.0618
     40 C           2.1842    5.8525    7.4786 C.ar    1  LIG1       -0.0600
     41 H           1.6579    6.6311    7.3424 H       1  LIG1        0.0618
     42 C           2.3304    4.9312    6.4462 C.ar    1  LIG1       -0.0400
     43 H           1.9167    5.0858    5.6054 H       1  LIG1        0.0636
@<TRIPOS>BOND
     1    26    25    1
     2    25    23   ar
     3    25    27   ar
     4    24    23    1
     5    28    27    1
     6    23    22   ar
     7    27    29   ar
     8     2     4    2
     9     4     5    1
    10     4     6    1
    11     1     6   ar
    12     1    11   ar
    13     6     7   ar
    14    11    17    1
    15    11     9   ar
    16     7     8    1
    17     7     9   ar
    18    19    18    1
    19    22     3    1
    20    22    31   ar
    21    17    18   ar
    22    17    15   ar
    23    16    15    1
    24     9    10    1
    25    18    20   ar
    26    15    13   ar
    27    29    30    1
    28    29    31   ar
    29    20    21    1
    30    20    12   ar
    31    13    12   ar
    32    13    14    1
    33    12     3    1
    34    43    42    1
    35     3    33    1
    36    31    32    1
    37    42    33   ar
    38    42    40   ar
    39    33    34   ar
    40    41    40    1
    41    40    38   ar
    42    34    35    1
    43    34    36   ar
    44    38    36   ar
    45    38    39    1
    46    36    37    1
