@<TRIPOS>MOLECULE
C17 H14 N2 O2 S2
 37 39 0 0 0
SMALL
GASTEIGER

@<TRIPOS>ATOM
      1 S          23.7485    3.0877    1.8867 S.2     1  LIG1       -0.0671
      2 S          23.6128    1.2539   -1.6806 S.2     1  LIG1        0.0064
      3 N          21.7896    2.1047    3.2694 N.ar    1  LIG1       -0.2389
      4 N          24.5531    3.7625   -1.5467 N.am    1  LIG1       -0.3013
      5 O          22.5922    3.4541   -0.6119 O.3     1  LIG1       -0.4339
      6 O          20.1196    2.8280   -3.7236 O.2     1  LIG1       -0.2956
      7 C          24.0142    2.8181    3.5662 C.ar    1  LIG1        0.0395
      8 C          25.1494    3.0624    4.3302 C.ar    1  LIG1       -0.0459
      9 H          25.9175    3.4126    3.9417 H       1  LIG1        0.0629
     10 C          25.1065    2.7738    5.6705 C.ar    1  LIG1       -0.0606
     11 H          25.8587    2.9229    6.1948 H       1  LIG1        0.0618
     12 C          23.9605    2.2663    6.2550 C.ar    1  LIG1       -0.0597
     13 H          23.9573    2.0853    7.1666 H       1  LIG1        0.0618
     14 C          22.8228    2.0237    5.5146 C.ar    1  LIG1       -0.0352
     15 H          22.0545    1.6876    5.9197 H       1  LIG1        0.0639
     16 C          22.8476    2.2949    4.1389 C.ar    1  LIG1        0.0789
     17 C          22.1234    2.4686    2.0618 C.ar    1  LIG1        0.1130
     18 C          21.1783    2.3200    0.9341 C.ar    1  LIG1        0.0501
     19 C          19.9456    1.6991    1.1726 C.ar    1  LIG1       -0.0485
     20 H          19.7327    1.4142    2.0311 H       1  LIG1        0.0625
     21 C          19.0380    1.5045    0.1464 C.ar    1  LIG1       -0.0602
     22 H          18.2288    1.0812    0.3212 H       1  LIG1        0.0618
     23 C          19.3231    1.9307   -1.1301 C.ar    1  LIG1       -0.0480
     24 H          18.7067    1.7846   -1.8126 H       1  LIG1        0.0626
     25 C          20.5165    2.5755   -1.4111 C.ar    1  LIG1        0.0571
     26 C          21.4234    2.7420   -0.3613 C.ar    1  LIG1        0.1505
     27 C          20.7878    3.0698   -2.7585 C.2     1  LIG1        0.1537
     28 H          21.5350    3.6114   -2.8766 H       1  LIG1        0.1083
     29 C          23.6309    2.8531   -1.2907 C.2     1  LIG1        0.2357
     30 C          25.8030    3.3738   -2.2094 C.3     1  LIG1        0.0035
     31 H          25.8343    2.4184   -2.2980 H       1  LIG1        0.0429
     32 H          26.5489    3.6711   -1.6851 H       1  LIG1        0.0429
     33 H          25.8415    3.7779   -3.0797 H       1  LIG1        0.0429
     34 C          24.4358    5.1778   -1.1844 C.3     1  LIG1        0.0035
     35 H          23.5584    5.3463   -0.8384 H       1  LIG1        0.0429
     36 H          24.5830    5.7191   -1.9626 H       1  LIG1        0.0429
     37 H          25.0895    5.3935   -0.5160 H       1  LIG1        0.0429
@<TRIPOS>BOND
     1     6    27    2
     2    33    30    1
     3    28    27    1
     4    27    25    1
     5    31    30    1
     6    30    32    1
     7    30     4    1
     8    36    34    1
     9    24    23    1
    10     2    29    2
    11     4    29    1
    12     4    34    1
    13    25    23   ar
    14    25    26   ar
    15    29     5    1
    16    34    35    1
    17    34    37    1
    18    23    21   ar
    19     5    26    1
    20    26    18   ar
    21    21    22    1
    22    21    19   ar
    23    18    19   ar
    24    18    17    1
    25    19    20    1
    26     1    17   ar
    27     1     7   ar
    28    17     3   ar
    29     3    16   ar
    30     7    16   ar
    31     7     8   ar
    32     9     8    1
    33    16    14   ar
    34     8    10   ar
    35    14    15    1
    36    14    12   ar
    37    10    11    1
    38    10    12   ar
    39    12    13    1
