@<TRIPOS>MOLECULE
1551789.cif
 40 40 0 0 0
SMALL
GASTEIGER

@<TRIPOS>ATOM
      1 N           3.0647   10.1985    6.4625 N.pl3   1  LIG1       -0.1364
      2 H           2.3531   10.4093    5.9531 H       1  LIG1        0.1966
      3 N           3.8978    9.3339    5.7391 N.2     1  LIG1       -0.1690
      4 N           6.5683    9.4031    3.6826 N.ar    1  LIG1       -0.2504
      5 N           5.9803    6.7612    3.0745 N.ar    1  LIG1       -0.2565
      6 O           1.7123   10.5121    8.4632 O.2     1  LIG1       -0.1487
      7 O           3.6939    9.0393    8.5461 O.2     1  LIG1       -0.1487
      8 O           5.2555    3.9550    2.4287 O.3     2  HOH2       -0.4105
      9 H           5.5044    4.7366    2.6540 H       0  HOH0        0.2052
     10 H           5.7085    3.3897    2.8726 H       0  HOH0        0.2052
     11 S           2.5348    9.5137    7.8616 S.O2    1  LIG1        0.0865
     12 C           1.5364    8.1231    7.4421 C.ar    1  LIG1        0.1099
     13 C           2.0926    6.8648    7.4007 C.ar    1  LIG1       -0.0348
     14 H           2.9924    6.7417    7.5996 H       1  LIG1        0.0637
     15 C           1.3010    5.7920    7.0608 C.ar    1  LIG1       -0.0570
     16 H           1.6851    4.9464    7.0126 H       1  LIG1        0.0621
     17 C          -0.0522    5.9341    6.7888 C.ar    1  LIG1       -0.0503
     18 C          -0.5888    7.2175    6.8385 C.ar    1  LIG1       -0.0570
     19 H          -1.4924    7.3411    6.6577 H       1  LIG1        0.0621
     20 C           0.1895    8.3049    7.1490 C.ar    1  LIG1       -0.0348
     21 H          -0.1824    9.1575    7.1626 H       1  LIG1        0.0637
     22 C          -0.9122    4.7441    6.4670 C.3     1  LIG1       -0.0397
     23 H          -1.3772    4.8981    5.6419 H       1  LIG1        0.0278
     24 H          -1.5488    4.6082    7.1731 H       1  LIG1        0.0278
     25 H          -0.3590    3.9635    6.3819 H       1  LIG1        0.0278
     26 C           4.2739   11.1915    4.1498 C.3     1  LIG1       -0.0187
     27 H           4.2806   11.8150    4.8800 H       1  LIG1        0.0294
     28 H           3.4382   11.2563    3.6819 H       1  LIG1        0.0294
     29 H           4.9946   11.3952    3.5493 H       1  LIG1        0.0294
     30 C           4.4429    9.8041    4.6781 C.2     1  LIG1        0.0845
     31 C           5.3722    8.8764    3.9818 C.ar    1  LIG1        0.1072
     32 C           5.0544    7.5487    3.6608 C.ar    1  LIG1        0.0653
     33 C           3.7150    6.9271    3.8838 C.3     1  LIG1       -0.0202
     34 H           3.7522    6.3537    4.6532 H       1  LIG1        0.0293
     35 H           3.4695    6.4110    3.1122 H       1  LIG1        0.0293
     36 H           3.0623    7.6159    4.0293 H       1  LIG1        0.0293
     37 C           7.4509    8.6002    3.0783 C.ar    1  LIG1        0.0464
     38 H           8.2855    8.9386    2.8462 H       1  LIG1        0.0845
     39 C           7.1598    7.2984    2.7942 C.ar    1  LIG1        0.0460
     40 H           7.8098    6.7704    2.3903 H       1  LIG1        0.0845
@<TRIPOS>BOND
     1    40    39    1
     2     8     9    1
     3     8    10    1
     4    39     5   ar
     5    39    37   ar
     6    38    37    1
     7     5    32   ar
     8    37     4   ar
     9    35    33    1
    10    29    26    1
    11    32    33    1
    12    32    31   ar
    13    28    26    1
    14     4    31   ar
    15    33    36    1
    16    33    34    1
    17    31    30    1
    18    26    30    1
    19    26    27    1
    20    30     3    2
    21    23    22    1
    22     3     1    1
    23     2     1    1
    24    25    22    1
    25     1    11    1
    26    22    17    1
    27    22    24    1
    28    19    18    1
    29    17    18   ar
    30    17    15   ar
    31    18    20   ar
    32    16    15    1
    33    15    13   ar
    34    20    21    1
    35    20    12   ar
    36    13    12   ar
    37    13    14    1
    38    12    11    1
    39    11     6    2
    40    11     7    2
