@<TRIPOS>MOLECULE
C17 H16 O2
 35 37 0 0 0
SMALL
GASTEIGER

@<TRIPOS>ATOM
      1 O          -0.3749    3.5779    1.9065 O.2     1  LIG1       -0.2914
      2 O           3.5019    2.7236    3.3624 O.3     1  LIG1       -0.3862
      3 H           4.1739    3.0272    2.9601 H       1  LIG1        0.2103
      4 C           3.5980    6.7746    1.5190 C.ar    1  LIG1       -0.0614
      5 H           4.2878    7.4050    1.3491 H       1  LIG1        0.0618
      6 C           3.7391    5.8707    2.5665 C.ar    1  LIG1       -0.0554
      7 H           4.5144    5.8837    3.1157 H       1  LIG1        0.0621
      8 C           2.7239    4.9474    2.7950 C.ar    1  LIG1       -0.0077
      9 C           2.6780    3.8037    3.7923 C.3     1  LIG1        0.0935
     10 H           2.9529    4.1167    4.7013 H       1  LIG1        0.0654
     11 C           1.1882    3.3662    3.7914 C.3     1  LIG1        0.0647
     12 C           0.9239    1.8486    3.8654 C.3     1  LIG1       -0.0125
     13 H          -0.0122    1.6816    3.5901 H       1  LIG1        0.0324
     14 H           1.5111    1.3979    3.2080 H       1  LIG1        0.0324
     15 C           1.1438    1.2087    5.2168 C.ar    1  LIG1       -0.0463
     16 C           0.0959    1.1169    6.1317 C.ar    1  LIG1       -0.0585
     17 H          -0.7523    1.4847    5.9124 H       1  LIG1        0.0620
     18 C           0.2783    0.4918    7.3657 C.ar    1  LIG1       -0.0615
     19 H          -0.4416    0.4478    7.9840 H       1  LIG1        0.0618
     20 C           1.4989   -0.0623    7.6925 C.ar    1  LIG1       -0.0617
     21 H           1.6203   -0.4919    8.5309 H       1  LIG1        0.0618
     22 C           2.3748    0.6519    5.5585 C.ar    1  LIG1       -0.0585
     23 H           3.1014    0.7087    4.9492 H       1  LIG1        0.0620
     24 C           2.5511    0.0134    6.7848 C.ar    1  LIG1       -0.0615
     25 H           3.3922   -0.3716    7.0015 H       1  LIG1        0.0618
     26 C           0.6652    3.9149    2.4521 C.2     1  LIG1        0.1724
     27 C           1.5913    4.9561    1.9874 C.ar    1  LIG1        0.0237
     28 C           2.4503    6.7692    0.7078 C.ar    1  LIG1       -0.0611
     29 H           2.3743    7.3905   -0.0067 H       1  LIG1        0.0618
     30 C           1.4322    5.8660    0.9426 C.ar    1  LIG1       -0.0509
     31 H           0.6467    5.8647    0.4084 H       1  LIG1        0.0625
     32 C           0.4384    4.1374    4.8911 C.3     1  LIG1       -0.0495
     33 H           0.5815    5.0992    4.7709 H       1  LIG1        0.0240
     34 H           0.7755    3.8639    5.7696 H       1  LIG1        0.0240
     35 H          -0.5199    3.9399    4.8331 H       1  LIG1        0.0240
@<TRIPOS>BOND
     1    29    28    1
     2    31    30    1
     3    28    30   ar
     4    28     4   ar
     5    30    27   ar
     6     5     4    1
     7     4     6   ar
     8     1    26    2
     9    27    26    1
    10    27     8   ar
    11    26    11    1
    12     6     8   ar
    13     6     7    1
    14     8     9    1
    15     3     2    1
    16    14    12    1
    17     2     9    1
    18    13    12    1
    19    11     9    1
    20    11    12    1
    21    11    32    1
    22     9    10    1
    23    12    15    1
    24    33    32    1
    25    35    32    1
    26    32    34    1
    27    23    22    1
    28    15    22   ar
    29    15    16   ar
    30    22    24   ar
    31    17    16    1
    32    16    18   ar
    33    24    25    1
    34    24    20   ar
    35    18    20   ar
    36    18    19    1
    37    20    21    1
