@<TRIPOS>MOLECULE
1551852.cif
 35 38 0 0 0
SMALL
GASTEIGER

@<TRIPOS>ATOM
      1 P           6.6550    7.0441    8.4353 P.3     1  LIG1        0.1174
      2 C           5.0752    6.8922    9.3373 C.ar    1  LIG1        0.1141
      3 C           4.2316    7.9106    9.7566 C.ar    1  LIG1       -0.0182
      4 H           4.4574    8.8197    9.5982 H       1  LIG1        0.0657
      5 C           3.0465    7.5800   10.4133 C.ar    1  LIG1       -0.0580
      6 H           2.4608    8.2676   10.7082 H       1  LIG1        0.0619
      7 C           2.7186    6.2481   10.6385 C.ar    1  LIG1       -0.0609
      8 H           1.9096    6.0345   11.0878 H       1  LIG1        0.0618
      9 C           3.5578    5.2241   10.2152 C.ar    1  LIG1       -0.0501
     10 H           3.3259    4.3163   10.3712 H       1  LIG1        0.0625
     11 C           4.7457    5.5469    9.5590 C.ar    1  LIG1        0.0287
     12 C           5.7567    4.6080    9.0236 C.ar    1  LIG1        0.0287
     13 C           5.7427    3.2169    9.0881 C.ar    1  LIG1       -0.0501
     14 H           5.0287    2.7648    9.5219 H       1  LIG1        0.0625
     15 C           6.7828    2.4944    8.5130 C.ar    1  LIG1       -0.0609
     16 H           6.7771    1.5459    8.5644 H       1  LIG1        0.0618
     17 C           7.8287    3.1373    7.8647 C.ar    1  LIG1       -0.0580
     18 H           8.5291    2.6287    7.4727 H       1  LIG1        0.0619
     19 C           7.8511    4.5267    7.7892 C.ar    1  LIG1       -0.0182
     20 H           8.5618    4.9730    7.3431 H       1  LIG1        0.0657
     21 C           6.8216    5.2509    8.3740 C.ar    1  LIG1        0.1141
     22 C           7.7798    7.7327    9.6764 C.ar    1  LIG1        0.1064
     23 C           7.6523    7.3929   11.0247 C.ar    1  LIG1       -0.0188
     24 H           6.9468    6.8218   11.3043 H       1  LIG1        0.0657
     25 C           8.5534    7.8872   11.9603 C.ar    1  LIG1       -0.0580
     26 H           8.4727    7.6396   12.8733 H       1  LIG1        0.0619
     27 C           9.5720    8.7429   11.5596 C.ar    1  LIG1       -0.0615
     28 H          10.1817    9.0892   12.2009 H       1  LIG1        0.0618
     29 C           9.6996    9.0920   10.2235 C.ar    1  LIG1       -0.0580
     30 H          10.3914    9.6838    9.9519 H       1  LIG1        0.0619
     31 C           8.8166    8.5770    9.2822 C.ar    1  LIG1       -0.0188
     32 H           8.9201    8.8021    8.3647 H       1  LIG1        0.0657
     33 C           6.9110    7.7846    6.9503 C.3     1  LIG1        0.1097
     34 H           6.9396    8.7511    6.9695 H       1  LIG1        0.0750
     35 H           6.4595    7.3747    6.2041 H       1  LIG1        0.0750
@<TRIPOS>BOND
     1    35    33    1
     2    33    34    1
     3    33     1    1
     4    20    19    1
     5    18    17    1
     6    19    17   ar
     7    19    21   ar
     8    17    15   ar
     9    32    31    1
    10    21     1    1
    11    21    12   ar
    12     1     2    1
    13     1    22    1
    14    15    16    1
    15    15    13   ar
    16    12    13   ar
    17    12    11    1
    18    13    14    1
    19    31    22   ar
    20    31    29   ar
    21     2    11   ar
    22     2     3   ar
    23    11     9   ar
    24     4     3    1
    25    22    23   ar
    26     3     5   ar
    27    30    29    1
    28     9    10    1
    29     9     7   ar
    30    29    27   ar
    31     5     7   ar
    32     5     6    1
    33     7     8    1
    34    23    24    1
    35    23    25   ar
    36    27    25   ar
    37    27    28    1
    38    25    26    1
