@<TRIPOS>MOLECULE
C15 H13 N O3 S2, C H4 O
 80 80 0 0 0
SMALL
GASTEIGER

@<TRIPOS>ATOM
      1 S          -0.9680    8.7708   14.5170 S.3     1  LIG1       -0.0610
      2 S           1.9314    2.9546   13.4663 S.3     2  LIG2       -0.0610
      3 S          -0.3800   10.9830   16.4135 S.2     1  LIG1       -0.0272
      4 S           1.5520    0.7531   11.5079 S.2     2  LIG2       -0.0272
      5 O          -0.2739    6.0497   17.1280 O.2     1  LIG1       -0.2690
      6 O          -0.4276    9.4909   20.3792 O.3     1  LIG1       -0.4795
      7 O           0.5889    5.3265   19.6597 O.3     1  LIG1       -0.3982
      8 O          -2.1319    9.1078   18.9650 O.2     1  LIG1       -0.2492
      9 O           0.8216    6.3444    8.1880 O.3     2  LIG2       -0.3982
     10 O           1.2722    5.6845   10.8527 O.2     2  LIG2       -0.2690
     11 O           3.2248    3.5909    9.0168 O.2     2  LIG2       -0.2492
     12 O           1.7708    2.7706    7.5048 O.3     2  LIG2       -0.4795
     13 N          -0.3081    8.3494   16.9658 N.am    1  LIG1       -0.2445
     14 N           1.3076    3.3938   11.0122 N.am    2  LIG2       -0.2445
     15 C          -2.1198    3.8253   11.3703 C.ar    1  LIG1       -0.0248
     16 C           3.3682    9.2960   16.5847 C.ar    2  LIG2       -0.0546
     17 C           1.4578    4.6812   11.5191 C.2     2  LIG2        0.2588
     18 C           2.1469    5.7769   13.6049 C.2     2  LIG2       -0.0400
     19 C           0.1468    8.6063   18.3228 C.3     1  LIG1        0.1180
     20 C          -1.5180    5.7309   12.9986 C.2     1  LIG1       -0.0487
     21 C           2.7011    7.3012   15.3431 C.2     2  LIG2       -0.0516
     22 C           3.0847    7.9176   16.6119 C.ar    2  LIG2       -0.0248
     23 C           3.8251    9.3116   18.9446 C.ar    2  LIG2       -0.0617
     24 C          -1.1616    5.9508   14.3850 C.2     1  LIG1       -0.0400
     25 C          -0.8975    7.0955   15.0553 C.2     1  LIG1        0.0769
     26 C          -0.4785    7.0544   16.4712 C.2     1  LIG1        0.2588
     27 C          -2.8506    3.8156    9.0541 C.ar    1  LIG1       -0.0612
     28 C           2.6065    5.9986   14.9603 C.2     2  LIG2       -0.0487
     29 C           2.1290    3.2038    8.6979 C.2     2  LIG2        0.3227
     30 C           3.1664    7.2622   17.8551 C.ar    2  LIG2       -0.0546
     31 C           1.8724    4.6342   12.9389 C.2     2  LIG2        0.0769
     32 C          -1.7740    4.4406   12.6536 C.2     1  LIG1       -0.0516
     33 C           0.9298    3.1688    9.6279 C.3     2  LIG2        0.1180
     34 C          -2.5768    4.5039   10.2262 C.ar    1  LIG1       -0.0546
     35 C          -2.7074    2.4389    8.9913 C.ar    1  LIG1       -0.0617
     36 C          -0.9603    9.1019   19.2349 C.2     1  LIG1        0.3227
     37 C           1.5667    2.3456   11.8716 C.2     2  LIG2        0.1210
     38 C           3.7353    9.9852   17.7290 C.ar    2  LIG2       -0.0612
     39 C          -2.0032    2.4271   11.2876 C.ar    1  LIG1       -0.0546
     40 C          -2.2889    1.7373   10.1236 C.ar    1  LIG1       -0.0612
     41 C           2.9651    4.8164   15.8217 C.3     2  LIG2       -0.0397
     42 C          -1.5089    6.8880   12.0397 C.3     1  LIG1       -0.0397
     43 C          -0.2025    7.3363    8.3135 C.3     2  LIG2        0.0330
     44 C          -0.5220    9.3852   16.0859 C.2     1  LIG1        0.1210
     45 C           3.5441    7.9547   18.9975 C.ar    2  LIG2       -0.0612
     46 C           1.4306    4.1713   19.6081 C.3     1  LIG1        0.0330
     47 H           3.3059    9.7661   15.7617 H       2  LIG2        0.0623
     48 H           2.0171    6.5698   13.0969 H       2  LIG2        0.0633
     49 H           0.8698    9.2820   18.2976 H       1  LIG1        0.0584
     50 H           0.5252    7.7727   18.6983 H       1  LIG1        0.0584
     51 H           2.4770    7.9234   14.6605 H       2  LIG2        0.0626
     52 H           4.0774    9.7785   19.7322 H       2  LIG2        0.0618
     53 H          -1.1030    5.1610   14.9099 H       1  LIG1        0.0633
     54 H          -3.1402    4.2931    8.2858 H       1  LIG1        0.0618
     55 H           2.9616    6.3359   17.9137 H       2  LIG2        0.0623
     56 H          -1.7183    3.8271   13.3771 H       1  LIG1        0.0626
     57 H           0.2821    3.8641    9.3505 H       2  LIG2        0.0584
     58 H           0.4837    2.2882    9.5495 H       2  LIG2        0.0584
     59 H          -2.6987    5.4458   10.2556 H       1  LIG1        0.0623
     60 H          -2.8928    1.9753    8.1821 H       1  LIG1        0.0618
     61 H           3.9262   10.9148   17.6839 H       2  LIG2        0.0618
     62 H          -1.7205    1.9415   12.0545 H       1  LIG1        0.0623
     63 H          -2.2012    0.7921   10.0959 H       1  LIG1        0.0618
     64 H           3.6444    5.0827   16.4762 H       2  LIG2        0.0278
     65 H           3.3196    4.0971   15.2573 H       2  LIG2        0.0278
     66 H           2.1655    4.4998   16.2913 H       2  LIG2        0.0278
     67 H          -1.2487    6.5722   11.1495 H       1  LIG1        0.0278
     68 H          -0.8681    7.5619   12.3460 H       1  LIG1        0.0278
     69 H          -2.4040    7.2836   11.9957 H       1  LIG1        0.0278
     70 H          -1.0194    6.9205    8.6584 H       2  LIG2        0.0521
     71 H          -0.3833    7.7316    7.4339 H       2  LIG2        0.0521
     72 H           0.0945    8.0362    8.9330 H       2  LIG2        0.0521
     73 H           3.6112    7.4936   19.8247 H       2  LIG2        0.0618
     74 H           2.3545    4.4479   19.4352 H       1  LIG1        0.0521
     75 H           1.1283    3.5784   18.8888 H       1  LIG1        0.0521
     76 H           1.3859    3.6962   20.4636 H       1  LIG1        0.0521
     77 H          -1.0374    9.7225   20.9063 H       1  LIG1        0.2951
     78 H           0.2415    5.4541   18.9056 H       1  LIG1        0.2090
     79 H           1.1116    6.1441    8.9498 H       2  LIG2        0.2090
     80 H           2.4141    2.8563    6.9716 H       2  LIG2        0.2951
@<TRIPOS>BOND
     1    80    12    1
     2    71    43    1
     3    12    29    1
     4    60    35    1
     5     9    43    1
     6     9    79    1
     7    54    27    1
     8    43    70    1
     9    43    72    1
    10    29    11    2
    11    29    33    1
    12    35    27   ar
    13    35    40   ar
    14    27    34   ar
    15    57    33    1
    16    58    33    1
    17    33    14    1
    18    63    40    1
    19    40    39   ar
    20    34    59    1
    21    34    15   ar
    22    10    17    2
    23    14    17   am
    24    14    37    1
    25    67    42    1
    26    39    15   ar
    27    39    62    1
    28    15    32    1
    29     4    37    2
    30    17    31    1
    31    37     2    1
    32    69    42    1
    33    42    68    1
    34    42    20    1
    35    32    20    2
    36    32    56    1
    37    31     2    1
    38    31    18    2
    39    20    24    1
    40    48    18    1
    41    18    28    1
    42    24    53    1
    43    24    25    2
    44     1    25    1
    45     1    44    1
    46    51    21    1
    47    28    21    2
    48    28    41    1
    49    25    26    1
    50    65    41    1
    51    21    22    1
    52    47    16    1
    53    41    66    1
    54    41    64    1
    55    44     3    2
    56    44    13    1
    57    26    13   am
    58    26     5    2
    59    16    22   ar
    60    16    38   ar
    61    22    30   ar
    62    13    19    1
    63    61    38    1
    64    38    23   ar
    65    30    55    1
    66    30    45   ar
    67    49    19    1
    68    19    50    1
    69    19    36    1
    70    75    46    1
    71    78     7    1
    72    23    45   ar
    73    23    52    1
    74     8    36    2
    75    45    73    1
    76    36     6    1
    77    74    46    1
    78    46     7    1
    79    46    76    1
    80     6    77    1
