@<TRIPOS>MOLECULE
C13 H14 N2 S3
 64 66 0 0 0
SMALL
GASTEIGER

@<TRIPOS>ATOM
      1 S           4.2353    1.9431    0.6118 S.2     1  LIG1       -0.0178
      2 S           9.3230    1.3726    2.0507 S.2     1  LIG1       -0.0385
      3 S           5.8624    2.0165    5.6595 S.2     1  LIG1       -0.0385
      4 S          11.6791    4.9446    4.9818 S.2     2  LIG2       -0.0178
      5 S           7.9007    8.6232    5.5672 S.2     2  LIG2       -0.0385
      6 S          10.3474    8.1205    0.9816 S.2     2  LIG2       -0.0385
      7 N           6.7697    1.6634    1.4090 N.am    1  LIG1       -0.2818
      8 N           5.1483    1.9145    3.1062 N.am    1  LIG1       -0.2818
      9 N           9.7356    6.7683    5.1409 N.am    2  LIG2       -0.2818
     10 N          10.7511    6.4899    3.0283 N.am    2  LIG2       -0.2818
     11 C           5.4310    1.8686    1.7390 C.2     1  LIG1        0.1440
     12 C           7.7945    1.9060    2.2951 C.2     1  LIG1        0.0731
     13 C           7.3902    2.7900    3.4688 C.3     1  LIG1        0.0828
     14 C           6.1057    2.2029    4.0484 C.2     1  LIG1        0.0731
     15 C           7.0940    1.1057    0.0829 C.3     1  LIG1        0.0076
     16 C           8.5053    2.8918    4.5109 C.3     1  LIG1       -0.0439
     17 C           3.7767    1.5907    3.5378 C.3     1  LIG1        0.0076
     18 C           7.0608    4.2163    2.9570 C.ar    1  LIG1       -0.0293
     19 C           7.5139    4.6879    1.7233 C.ar    1  LIG1       -0.0573
     20 C           7.2361    5.9954    1.3315 C.ar    1  LIG1       -0.0615
     21 C           6.5168    6.8385    2.1560 C.ar    1  LIG1       -0.0617
     22 C           6.0767    6.3823    3.3873 C.ar    1  LIG1       -0.0615
     23 C           6.3500    5.0804    3.7883 C.ar    1  LIG1       -0.0573
     24 C          10.7024    6.1215    4.3768 C.2     2  LIG2        0.1440
     25 C           9.1812    7.9740    4.7756 C.2     2  LIG2        0.0731
     26 C           9.9471    8.7098    3.6697 C.3     2  LIG2        0.0828
     27 C          10.3236    7.7096    2.5711 C.2     2  LIG2        0.0731
     28 C           9.2526    6.1221    6.3841 C.3     2  LIG2        0.0076
     29 C           9.1432    9.8861    3.1066 C.3     2  LIG2       -0.0439
     30 C          11.3587    5.5305    2.0747 C.3     2  LIG2        0.0076
     31 C          11.2497    9.2809    4.3054 C.ar    2  LIG2       -0.0293
     32 C          11.1545   10.0329    5.4798 C.ar    2  LIG2       -0.0573
     33 C          12.2880   10.6043    6.0461 C.ar    2  LIG2       -0.0615
     34 C          13.5309   10.4516    5.4430 C.ar    2  LIG2       -0.0617
     35 C          13.6298    9.7241    4.2669 C.ar    2  LIG2       -0.0615
     36 C          12.5010    9.1378    3.7002 C.ar    2  LIG2       -0.0573
     37 H           6.3987    1.3639   -0.5584 H       1  LIG1        0.0432
     38 H           7.1370    0.1280    0.1420 H       1  LIG1        0.0432
     39 H           7.9590    1.4537   -0.2157 H       1  LIG1        0.0432
     40 H           8.8646    1.9986    4.6929 H       1  LIG1        0.0246
     41 H           8.1448    3.2740    5.3387 H       1  LIG1        0.0246
     42 H           9.2201    3.4677    4.1686 H       1  LIG1        0.0246
     43 H           3.2322    2.4052    3.5337 H       1  LIG1        0.0432
     44 H           3.7980    1.2171    4.4430 H       1  LIG1        0.0432
     45 H           3.3870    0.9335    2.9233 H       1  LIG1        0.0432
     46 H           8.0127    4.1165    1.1510 H       1  LIG1        0.0621
     47 H           7.5429    6.3097    0.4902 H       1  LIG1        0.0618
     48 H           6.3245    7.7264    1.8802 H       1  LIG1        0.0618
     49 H           5.5868    6.9606    3.9597 H       1  LIG1        0.0618
     50 H           6.0504    4.7765    4.6369 H       1  LIG1        0.0621
     51 H           9.8810    5.4196    6.6522 H       2  LIG2        0.0432
     52 H           8.3697    5.7287    6.2262 H       2  LIG2        0.0432
     53 H           9.1895    6.7918    7.0974 H       2  LIG2        0.0432
     54 H           8.2580    9.5733    2.8277 H       2  LIG2        0.0246
     55 H           9.6147   10.2644    2.3348 H       2  LIG2        0.0246
     56 H           9.0438   10.5741    3.7972 H       2  LIG2        0.0246
     57 H          12.2987    5.7649    1.9293 H       2  LIG2        0.0432
     58 H          10.8768    5.5687    1.2220 H       2  LIG2        0.0432
     59 H          11.3014    4.6244    2.4427 H       2  LIG2        0.0432
     60 H          10.3084   10.1544    5.8944 H       2  LIG2        0.0621
     61 H          12.2123   11.1027    6.8516 H       2  LIG2        0.0618
     62 H          14.3046   10.8413    5.8330 H       2  LIG2        0.0618
     63 H          14.4746    9.6252    3.8436 H       2  LIG2        0.0618
     64 H          12.5819    8.6366    2.8974 H       2  LIG2        0.0621
@<TRIPOS>BOND
     1    37    15    1
     2    39    15    1
     3    15    38    1
     4    15     7    1
     5    47    20    1
     6     1    11    2
     7     6    27    2
     8    46    19    1
     9    58    30    1
    10    20    19   ar
    11    20    21   ar
    12     7    11    1
    13     7    12    1
    14    19    18   ar
    15    11     8    1
    16    48    21    1
    17    57    30    1
    18     2    12    2
    19    30    59    1
    20    30    10    1
    21    21    22   ar
    22    12    13    1
    23    55    29    1
    24    27    10    1
    25    27    26    1
    26    54    29    1
    27    64    36    1
    28    45    17    1
    29    18    13    1
    30    18    23   ar
    31    10    24    1
    32     8    17    1
    33     8    14    1
    34    29    26    1
    35    29    56    1
    36    22    23   ar
    37    22    49    1
    38    13    14    1
    39    13    16    1
    40    43    17    1
    41    17    44    1
    42    26    31    1
    43    26    25    1
    44    36    35   ar
    45    36    31   ar
    46    23    50    1
    47    63    35    1
    48    14     3    2
    49    42    16    1
    50    35    34   ar
    51    31    32   ar
    52    24     4    2
    53    24     9    1
    54    16    40    1
    55    16    41    1
    56    25     9    1
    57    25     5    2
    58     9    28    1
    59    34    62    1
    60    34    33   ar
    61    32    60    1
    62    32    33   ar
    63    33    61    1
    64    52    28    1
    65    28    51    1
    66    28    53    1
