@<TRIPOS>MOLECULE
C16 H14 N2 O S
 34 36 0 0 0
SMALL
GASTEIGER

@<TRIPOS>ATOM
      1 S           4.7449   10.1575    6.3437 S.2     1  LIG1       -0.0627
      2 O           3.5024   12.7893    6.9606 O.2     1  LIG1       -0.2679
      3 N           3.8268   13.7287    4.9172 N.am    1  LIG1       -0.3055
      4 N           4.8104   11.2795    4.0194 N.ar    1  LIG1       -0.2344
      5 C           3.8670   12.7319    5.7841 C.2     1  LIG1        0.2695
      6 C           4.4595   11.4619    5.2531 C.ar    1  LIG1        0.1639
      7 C           1.8161   15.1939    5.0691 C.ar    1  LIG1       -0.0301
      8 C           5.3623   10.0156    3.8630 C.ar    1  LIG1        0.0791
      9 C           3.3020   15.0405    5.2683 C.3     1  LIG1        0.0372
     10 C           1.0962   14.3653    4.2377 C.ar    1  LIG1       -0.0542
     11 C           5.4116    9.2513    5.0319 C.ar    1  LIG1        0.0397
     12 C           5.8487    9.4882    2.6704 C.ar    1  LIG1       -0.0352
     13 C          -0.2561   14.5434    4.0013 C.ar    1  LIG1       -0.0501
     14 C           6.3649    8.2134    2.6732 C.ar    1  LIG1       -0.0597
     15 C           6.3968    7.4611    3.8297 C.ar    1  LIG1       -0.0606
     16 C           1.1591   16.2385    5.6907 C.ar    1  LIG1       -0.0571
     17 C           5.9255    7.9599    5.0071 C.ar    1  LIG1       -0.0459
     18 C          -0.8930   15.6018    4.6296 C.ar    1  LIG1       -0.0588
     19 C          -0.1901   16.4435    5.4514 C.ar    1  LIG1       -0.0612
     20 C          -0.9901   13.6335    3.0737 C.3     1  LIG1       -0.0397
     21 H           5.9477    7.4449    5.7812 H       1  LIG1        0.0629
     22 H           6.7466    6.5993    3.8049 H       1  LIG1        0.0618
     23 H           6.6972    7.8528    1.8829 H       1  LIG1        0.0618
     24 H           5.8256    9.9884    1.8867 H       1  LIG1        0.0639
     25 H           1.6212   16.8023    6.2684 H       1  LIG1        0.0621
     26 H          -0.6240   17.1611    5.8527 H       1  LIG1        0.0618
     27 H          -1.8020   15.7424    4.4923 H       1  LIG1        0.0620
     28 H           1.5344   13.6597    3.8201 H       1  LIG1        0.0623
     29 H           4.1204   13.5981    4.1194 H       1  LIG1        0.1494
     30 H           3.5095   15.2182    6.1998 H       1  LIG1        0.0512
     31 H           3.7571   15.7099    4.7344 H       1  LIG1        0.0512
     32 H          -0.5117   13.5751    2.2414 H       1  LIG1        0.0278
     33 H          -1.0548   12.7608    3.4664 H       1  LIG1        0.0278
     34 H          -1.8716   13.9805    2.9173 H       1  LIG1        0.0278
@<TRIPOS>BOND
     1    23    14    1
     2    24    12    1
     3    32    20    1
     4    12    14   ar
     5    12     8   ar
     6    14    15   ar
     7    34    20    1
     8    20    33    1
     9    20    13    1
    10    22    15    1
    11    28    10    1
    12    15    17   ar
    13     8     4   ar
    14     8    11   ar
    15    13    10   ar
    16    13    18   ar
    17     4     6   ar
    18    29     3    1
    19    10     7   ar
    20    27    18    1
    21    18    19   ar
    22    31     9    1
    23     3     9    1
    24     3     5   am
    25    17    11   ar
    26    17    21    1
    27    11     1   ar
    28     7     9    1
    29     7    16   ar
    30     6     5    1
    31     6     1   ar
    32     9    30    1
    33    19    16   ar
    34    19    26    1
    35    16    25    1
    36     5     2    2
