@<TRIPOS>MOLECULE
1552825.cif
 110 120 0 0 0
SMALL
GASTEIGER

@<TRIPOS>ATOM
      1 CL         -1.1290   13.8331   10.6274 Cl      1  LIG1       -0.0780
      2 CL         -4.5505    9.8913    9.2794 Cl      1  LIG1       -0.0780
      3 CL          2.9195    0.7645   17.6774 Cl      1  LIG1       -0.0780
      4 CL          6.3483    4.5612   19.3226 Cl      1  LIG1       -0.0780
      5 O           0.6113   11.5785   11.2737 O.3     1  LIG1       -0.4366
      6 O          -2.2624    8.2098    9.8935 O.3     1  LIG1       -0.4366
      7 O           2.8253    2.4083   15.2750 O.3     1  LIG1       -0.4366
      8 O           5.9500    5.5700   16.6163 O.3     1  LIG1       -0.4366
      9 N          -0.8335    9.8856   10.5924 N.ar    1  LIG1       -0.1747
     10 N           4.4090    3.9677   15.9413 N.ar    1  LIG1       -0.1747
     11 C          -2.7467   11.7757   10.0114 C.ar    1  LIG1       -0.0147
     12 H          -3.4093   12.4262    9.8119 H       1  LIG1        0.0650
     13 C          -1.5132   12.1616   10.4807 C.ar    1  LIG1        0.1044
     14 C          -0.5802   11.1645   10.7793 C.ar    1  LIG1        0.2422
     15 C          -1.9959    9.5218   10.0955 C.ar    1  LIG1        0.2422
     16 C          -3.0129   10.4332    9.8308 C.ar    1  LIG1        0.1044
     17 C           1.7112   10.7014   11.4205 C.ar    1  LIG1        0.1305
     18 C           2.9218   11.2331   11.0202 C.ar    1  LIG1       -0.0187
     19 H           2.9606   12.1053   10.6426 H       1  LIG1        0.0654
     20 C           4.0659   10.4969   11.1708 C.ar    1  LIG1       -0.0505
     21 H           4.8985   10.8754   10.9148 H       1  LIG1        0.0625
     22 C           4.0348    9.2118   11.6915 C.ar    1  LIG1       -0.0165
     23 C           2.8254    8.7341   12.1558 C.ar    1  LIG1       -0.0505
     24 H           2.7952    7.8889   12.5886 H       1  LIG1        0.0625
     25 C           1.6447    9.4679   12.0039 C.ar    1  LIG1       -0.0187
     26 H           0.8128    9.1175   12.3013 H       1  LIG1        0.0654
     27 C           5.2713    8.3629   11.7292 C.2     1  LIG1       -0.0025
     28 C           6.0726    8.2502   10.6539 C.2     1  LIG1       -0.0025
     29 C           5.6375    8.7182    9.3101 C.ar    1  LIG1       -0.0167
     30 C           4.4499    8.2858    8.7743 C.ar    1  LIG1       -0.0540
     31 H           3.9163    7.6720    9.2649 H       1  LIG1        0.0624
     32 C           4.0067    8.7194    7.5321 C.ar    1  LIG1       -0.0612
     33 H           3.1798    8.4119    7.1820 H       1  LIG1        0.0618
     34 C           4.7811    9.5989    6.8207 C.ar    1  LIG1       -0.0617
     35 H           4.4921    9.8929    5.9637 H       1  LIG1        0.0618
     36 C           5.9572   10.0546    7.3339 C.ar    1  LIG1       -0.0612
     37 H           6.4722   10.6892    6.8470 H       1  LIG1        0.0618
     38 C           6.4119    9.5977    8.5622 C.ar    1  LIG1       -0.0540
     39 H           7.2543    9.8868    8.8922 H       1  LIG1        0.0624
     40 C           7.4300    7.6157   10.6764 C.ar    1  LIG1       -0.0167
     41 C           7.8211    6.7313    9.7141 C.ar    1  LIG1       -0.0540
     42 H           7.2153    6.5046    9.0164 H       1  LIG1        0.0624
     43 C           9.0680    6.1629    9.7329 C.ar    1  LIG1       -0.0612
     44 H           9.3300    5.5712    9.0390 H       1  LIG1        0.0618
     45 C           9.9363    6.4495   10.7567 C.ar    1  LIG1       -0.0617
     46 H          10.7831    6.0245   10.7919 H       1  LIG1        0.0618
     47 C           9.5855    7.3438   11.7216 C.ar    1  LIG1       -0.0612
     48 H          10.1939    7.5581   12.4180 H       1  LIG1        0.0618
     49 C           8.3355    7.9379   11.6852 C.ar    1  LIG1       -0.0540
     50 H           8.0934    8.5700   12.3528 H       1  LIG1        0.0624
     51 C           5.5224    7.6353   13.0140 C.ar    1  LIG1       -0.0165
     52 C           5.8969    6.3001   13.0127 C.ar    1  LIG1       -0.0505
     53 H           6.0548    5.8603   12.1846 H       1  LIG1        0.0625
     54 C           6.0445    5.5994   14.1934 C.ar    1  LIG1       -0.0187
     55 H           6.3299    4.6941   14.1771 H       1  LIG1        0.0654
     56 C           5.7774    6.2180   15.3930 C.ar    1  LIG1        0.1305
     57 C           5.4247    7.5373   15.4293 C.ar    1  LIG1       -0.0187
     58 H           5.2811    7.9697   16.2625 H       1  LIG1        0.0654
     59 C           5.2776    8.2490   14.2373 C.ar    1  LIG1       -0.0505
     60 H           5.0067    9.1592   14.2612 H       1  LIG1        0.0625
     61 C          -1.1975    7.2948    9.9123 C.ar    1  LIG1        0.1305
     62 C          -1.3179    6.2008   10.7266 C.ar    1  LIG1       -0.0187
     63 H          -2.0799    6.0955   11.2825 H       1  LIG1        0.0654
     64 C          -0.3102    5.2539   10.7254 C.ar    1  LIG1       -0.0505
     65 H          -0.3972    4.4896   11.2837 H       1  LIG1        0.0625
     66 C           0.8203    5.3838    9.9387 C.ar    1  LIG1       -0.0165
     67 C           0.8883    6.5083    9.1055 C.ar    1  LIG1       -0.0505
     68 H           1.6469    6.6235    8.5434 H       1  LIG1        0.0625
     69 C          -0.1141    7.4467    9.0829 C.ar    1  LIG1       -0.0187
     70 H          -0.0567    8.1939    8.4995 H       1  LIG1        0.0654
     71 C           1.9403    4.4112   10.0453 C.2     1  LIG1       -0.0025
     72 C           2.7321    4.0253    9.0277 C.2     1  LIG1       -0.0025
     73 C           2.5069    4.3646    7.5861 C.ar    1  LIG1       -0.0167
     74 C           1.4143    3.9457    6.9236 C.ar    1  LIG1       -0.0540
     75 H           0.7585    3.4140    7.3577 H       1  LIG1        0.0624
     76 C           1.2590    4.3217    5.5333 C.ar    1  LIG1       -0.0612
     77 H           0.5048    4.0192    5.0377 H       1  LIG1        0.0618
     78 C           2.1918    5.1082    4.9486 C.ar    1  LIG1       -0.0617
     79 H           2.0689    5.3826    4.0477 H       1  LIG1        0.0618
     80 C           3.2649    5.5002    5.5910 C.ar    1  LIG1       -0.0612
     81 H           3.9128    6.0416    5.1582 H       1  LIG1        0.0618
     82 C           3.4370    5.1180    6.8972 C.ar    1  LIG1       -0.0540
     83 H           4.2309    5.3813    7.3464 H       1  LIG1        0.0624
     84 C           3.9494    3.1947    9.2574 C.ar    1  LIG1       -0.0167
     85 C           5.0592    3.7411    9.8684 C.ar    1  LIG1       -0.0540
     86 H           5.0293    4.6378   10.1796 H       1  LIG1        0.0624
     87 C           6.2038    3.0098   10.0328 C.ar    1  LIG1       -0.0612
     88 H           6.9698    3.4140   10.4217 H       1  LIG1        0.0618
     89 C           6.2468    1.7309    9.6476 C.ar    1  LIG1       -0.0617
     90 H           7.0290    1.2213    9.8207 H       1  LIG1        0.0618
     91 C           5.1672    1.1258    8.9976 C.ar    1  LIG1       -0.0612
     92 H           5.2175    0.2229    8.7028 H       1  LIG1        0.0618
     93 C           4.0003    1.8938    8.7931 C.ar    1  LIG1       -0.0540
     94 H           3.2558    1.5190    8.3389 H       1  LIG1        0.0624
     95 C           2.1788    3.8930   11.4318 C.ar    1  LIG1       -0.0165
     96 C           2.3802    4.7737   12.4807 C.ar    1  LIG1       -0.0505
     97 H           2.3504    5.7072   12.3076 H       1  LIG1        0.0625
     98 C           2.6214    4.3389   13.7706 C.ar    1  LIG1       -0.0187
     99 H           2.7585    4.9599   14.4757 H       1  LIG1        0.0654
    100 C           2.6576    2.9853   14.0077 C.ar    1  LIG1        0.1305
    101 C           2.4163    2.0935   13.0077 C.ar    1  LIG1       -0.0187
    102 H           2.4150    1.1613   13.1897 H       1  LIG1        0.0654
    103 C           2.1738    2.5516   11.7292 C.ar    1  LIG1       -0.0505
    104 H           1.9985    1.9244   11.0378 H       1  LIG1        0.0625
    105 C           3.7005    2.8910   16.2060 C.ar    1  LIG1        0.2422
    106 C           3.8257    2.1952   17.3905 C.ar    1  LIG1        0.1044
    107 C           4.6640    2.7011   18.3528 C.ar    1  LIG1       -0.0147
    108 H           4.7446    2.2625   19.1923 H       1  LIG1        0.0650
    109 C           5.3799    3.8330   18.1032 C.ar    1  LIG1        0.1044
    110 C           5.2270    4.4430   16.8610 C.ar    1  LIG1        0.2422
@<TRIPOS>BOND
     1    79    78    1
     2    78    76   ar
     3    78    80   ar
     4    77    76    1
     5    81    80    1
     6    76    74   ar
     7    80    82   ar
     8    35    34    1
     9    34    36   ar
    10    34    32   ar
    11    37    36    1
    12    82    83    1
    13    82    73   ar
    14    74    75    1
    15    74    73   ar
    16    33    32    1
    17    36    38   ar
    18    32    30   ar
    19    73    72    1
    20    94    93    1
    21    70    69    1
    22    68    67    1
    23    38    39    1
    24    38    29   ar
    25    92    91    1
    26    30    31    1
    27    30    29   ar
    28    93    91   ar
    29    93    84   ar
    30    91    89   ar
    31    42    41    1
    32    72    84    1
    33    72    71    2
    34    44    43    1
    35    69    67   ar
    36    69    61   ar
    37    67    66   ar
    38    84    85   ar
    39     2    16    1
    40    29    28    1
    41    89    90    1
    42    89    87   ar
    43    41    43   ar
    44    41    40   ar
    45    43    45   ar
    46    12    11    1
    47    16    11   ar
    48    16    15   ar
    49    85    87   ar
    50    85    86    1
    51     6    61    1
    52     6    15    1
    53    61    62   ar
    54    66    71    1
    55    66    64   ar
    56    11    13   ar
    57    87    88    1
    58    71    95    1
    59    15     9   ar
    60    13     1    1
    61    13    14   ar
    62     9    14   ar
    63    19    18    1
    64    28    40    1
    65    28    27    2
    66    40    49   ar
    67    64    62   ar
    68    64    65    1
    69    62    63    1
    70    45    46    1
    71    45    47   ar
    72    14     5    1
    73    21    20    1
    74    18    20   ar
    75    18    17   ar
    76   104   103    1
    77    20    22   ar
    78     5    17    1
    79    17    25   ar
    80    95   103   ar
    81    95    96   ar
    82    49    47   ar
    83    49    50    1
    84    22    27    1
    85    22    23   ar
    86    47    48    1
    87   103   101   ar
    88    27    51    1
    89    25    23   ar
    90    25    26    1
    91    23    24    1
    92    53    52    1
    93    97    96    1
    94    96    98   ar
    95   101   102    1
    96   101   100   ar
    97    52    51   ar
    98    52    54   ar
    99    51    59   ar
   100    98   100   ar
   101    98    99    1
   102   100     7    1
   103    55    54    1
   104    54    56   ar
   105    59    60    1
   106    59    57   ar
   107     7   105    1
   108    56    57   ar
   109    56     8    1
   110    57    58    1
   111    10   105   ar
   112    10   110   ar
   113   105   106   ar
   114     8   110    1
   115   110   109   ar
   116   106     3    1
   117   106   107   ar
   118   109   107   ar
   119   109     4    1
   120   107   108    1
