@<TRIPOS>MOLECULE
C22 H17 N O
 41 44 0 0 0
SMALL
GASTEIGER

@<TRIPOS>ATOM
      1 O           3.7701    6.0656    9.0852 O.2     1  LIG1       -0.2696
      2 C           4.7624    6.0948    8.3726 C.2     1  LIG1        0.2515
      3 C           5.0589    7.0000    7.2438 C.ar    1  LIG1        0.0419
      4 C           4.3055    8.0389    6.7257 C.ar    1  LIG1       -0.0493
      5 H           3.4538    8.2563    7.0865 H       1  LIG1        0.0625
      6 C           4.8340    8.7470    5.6677 C.ar    1  LIG1       -0.0610
      7 H           4.3390    9.4674    5.2951 H       1  LIG1        0.0618
      8 C           6.0690    8.4292    5.1392 C.ar    1  LIG1       -0.0614
      9 H           6.4098    8.9344    4.4105 H       1  LIG1        0.0618
     10 C           6.8134    7.3920    5.6516 C.ar    1  LIG1       -0.0563
     11 H           7.6600    7.1706    5.2813 H       1  LIG1        0.0621
     12 C           6.2981    6.6800    6.7203 C.ar    1  LIG1       -0.0176
     13 C           6.8872    5.5432    7.4794 C.3     1  LIG1        0.0459
     14 H           7.0538    4.7649    6.8906 H       1  LIG1        0.0518
     15 H           7.7343    5.8052    7.9201 H       1  LIG1        0.0518
     16 N           5.8462    5.2539    8.4602 N.am    1  LIG1       -0.2625
     17 C           5.9653    4.1765    9.3766 C.ar    1  LIG1        0.0441
     18 C           7.0456    4.1713   10.2607 C.ar    1  LIG1       -0.0397
     19 H           7.6780    4.8799   10.2450 H       1  LIG1        0.0636
     20 C           7.1908    3.1331   11.1578 C.ar    1  LIG1       -0.0600
     21 H           7.9287    3.1178   11.7556 H       1  LIG1        0.0618
     22 C           6.2573    2.1167   11.1813 C.ar    1  LIG1       -0.0611
     23 H           6.3407    1.4181   11.8197 H       1  LIG1        0.0618
     24 C           5.2005    2.1020   10.2867 C.ar    1  LIG1       -0.0528
     25 H           4.5717    1.3901   10.3159 H       1  LIG1        0.0624
     26 C           5.0451    3.1204    9.3408 C.ar    1  LIG1       -0.0036
     27 C           4.0533    3.0532    8.2604 C.2     1  LIG1       -0.0523
     28 H           4.1167    3.7298    7.5967 H       1  LIG1        0.0624
     29 C           3.0791    2.1674    8.0934 C.2     1  LIG1       -0.0540
     30 H           2.9567    1.5064    8.7646 H       1  LIG1        0.0624
     31 C           2.1780    2.1474    6.9318 C.ar    1  LIG1       -0.0250
     32 C           2.4738    2.8284    5.7428 C.ar    1  LIG1       -0.0546
     33 H           3.3109    3.2686    5.6507 H       1  LIG1        0.0623
     34 C           1.5650    2.8679    4.7038 C.ar    1  LIG1       -0.0612
     35 H           1.7747    3.3389    3.9059 H       1  LIG1        0.0618
     36 C           0.3465    2.2187    4.8274 C.ar    1  LIG1       -0.0617
     37 H          -0.2876    2.2602    4.1211 H       1  LIG1        0.0618
     38 C           0.0557    1.5177    5.9677 C.ar    1  LIG1       -0.0612
     39 H          -0.7725    1.0586    6.0421 H       1  LIG1        0.0618
     40 C           0.9620    1.4744    7.0110 C.ar    1  LIG1       -0.0546
     41 H           0.7520    0.9782    7.7933 H       1  LIG1        0.0623
@<TRIPOS>BOND
     1    35    34    1
     2    37    36    1
     3     9     8    1
     4    34    36   ar
     5    34    32   ar
     6    36    38   ar
     7     8    10   ar
     8     8     6   ar
     9    11    10    1
    10     7     6    1
    11    33    32    1
    12    10    12   ar
    13     6     4   ar
    14    32    31   ar
    15    38    39    1
    16    38    40   ar
    17    12     3   ar
    18    12    13    1
    19     4     5    1
    20     4     3   ar
    21    14    13    1
    22    31    40   ar
    23    31    29    1
    24    40    41    1
    25     3     2    1
    26    13    15    1
    27    13    16    1
    28    28    27    1
    29    29    27    2
    30    29    30    1
    31    27    26    1
    32     2    16   am
    33     2     1    2
    34    16    17    1
    35    26    17   ar
    36    26    24   ar
    37    17    18   ar
    38    19    18    1
    39    18    20   ar
    40    24    25    1
    41    24    22   ar
    42    20    22   ar
    43    20    21    1
    44    22    23    1
