@<TRIPOS>MOLECULE
C30 H46 O5
 81 85 0 0 0
SMALL
GASTEIGER

@<TRIPOS>ATOM
      1 O         -11.4433  -27.4106    6.6058 O.2     1  LIG1       -0.2968
      2 O          -5.1624  -22.7847    2.1000 O.3     1  LIG1       -0.3887
      3 H          -5.2000  -23.4127    1.4648 H       1  LIG1        0.2099
      4 O          -4.7403  -20.3488    1.6131 O.3     1  LIG1       -0.3889
      5 H          -4.3562  -21.1642    1.7084 H       1  LIG1        0.2099
      6 O          -6.9651  -13.4586   -0.4897 O.3     1  LIG1       -0.4774
      7 H          -7.3060  -12.7417   -0.8995 H       1  LIG1        0.2954
      8 O          -5.4545  -11.9449    0.0565 O.2     1  LIG1       -0.2455
      9 C          -9.9444  -24.3439    6.7851 C.3     1  LIG1       -0.0399
     10 H         -10.6850  -24.1018    6.2074 H       1  LIG1        0.0275
     11 H          -9.7784  -23.6011    7.3864 H       1  LIG1        0.0275
     12 C         -10.3231  -25.5850    7.6034 C.3     1  LIG1        0.0069
     13 H          -9.6553  -25.7379    8.2900 H       1  LIG1        0.0342
     14 H         -11.1767  -25.4383    8.0403 H       1  LIG1        0.0342
     15 C         -10.4143  -26.7830    6.7192 C.2     1  LIG1        0.1392
     16 C          -9.1747  -27.1283    5.9025 C.3     1  LIG1        0.0267
     17 C          -8.8605  -25.8305    5.0730 C.3     1  LIG1       -0.0230
     18 H          -9.6666  -25.6670    4.5399 H       1  LIG1        0.0316
     19 C          -7.7355  -25.9889    4.0545 C.3     1  LIG1       -0.0485
     20 H          -6.8916  -26.1313    4.5114 H       1  LIG1        0.0268
     21 H          -7.9080  -26.7553    3.4855 H       1  LIG1        0.0268
     22 C          -7.6655  -24.7196    3.2131 C.3     1  LIG1       -0.0488
     23 H          -8.5407  -24.5407    2.8352 H       1  LIG1        0.0268
     24 H          -7.0475  -24.8592    2.4786 H       1  LIG1        0.0268
     25 C          -7.2134  -23.5057    4.0230 C.3     1  LIG1       -0.0265
     26 H          -6.2630  -23.6424    4.2202 H       1  LIG1        0.0313
     27 C          -7.9344  -23.3773    5.3975 C.3     1  LIG1       -0.0193
     28 C          -8.7000  -24.5949    5.9347 C.3     1  LIG1       -0.0187
     29 C          -8.5065  -22.0165    5.7901 C.3     1  LIG1       -0.0460
     30 H          -8.4952  -21.9618    6.7585 H       1  LIG1        0.0271
     31 H          -9.4367  -21.9988    5.5153 H       1  LIG1        0.0271
     32 C          -7.8370  -20.7468    5.2451 C.3     1  LIG1       -0.0462
     33 H          -7.3886  -20.2944    5.9769 H       1  LIG1        0.0271
     34 H          -8.5264  -20.1516    4.9113 H       1  LIG1        0.0271
     35 C          -6.8141  -20.9957    4.1201 C.3     1  LIG1       -0.0185
     36 C          -7.3094  -22.1857    3.2394 C.3     1  LIG1        0.0054
     37 C          -6.4142  -22.0975    1.9773 C.3     1  LIG1        0.0874
     38 H          -6.9035  -22.4350    1.1984 H       1  LIG1        0.0625
     39 C          -6.1412  -20.5645    1.8102 C.3     1  LIG1        0.0851
     40 H          -6.6277  -20.2383    1.0244 H       1  LIG1        0.0622
     41 C          -6.6927  -19.8566    3.0729 C.3     1  LIG1       -0.0040
     42 H          -7.6121  -19.5991    2.8528 H       1  LIG1        0.0335
     43 C          -5.4456  -21.2962    4.7635 C.3     1  LIG1       -0.0586
     44 H          -4.8301  -21.5864    4.0860 H       1  LIG1        0.0235
     45 H          -5.5459  -21.9877    5.4217 H       1  LIG1        0.0235
     46 H          -5.1077  -20.5016    5.1831 H       1  LIG1        0.0235
     47 C          -7.3595  -24.2226    6.5181 C.3     1  LIG1       -0.0401
     48 H          -6.6033  -24.7930    6.3095 H       1  LIG1        0.0276
     49 H          -7.3470  -23.8404    7.4096 H       1  LIG1        0.0276
     50 C          -5.9573  -18.5394    3.4027 C.3     1  LIG1       -0.0378
     51 H          -4.9924  -18.7100    3.3826 H       1  LIG1        0.0302
     52 C          -6.3182  -17.9667    4.7741 C.3     1  LIG1       -0.0621
     53 H          -5.8997  -17.0990    4.8909 H       1  LIG1        0.0233
     54 H          -7.2854  -17.8359    4.8003 H       1  LIG1        0.0233
     55 H          -5.9957  -18.5473    5.5249 H       1  LIG1        0.0233
     56 C          -6.2955  -17.5209    2.2940 C.3     1  LIG1       -0.0466
     57 H          -6.1707  -17.9497    1.4330 H       1  LIG1        0.0271
     58 H          -7.2330  -17.2836    2.3692 H       1  LIG1        0.0271
     59 C          -5.4696  -16.2433    2.3221 C.3     1  LIG1       -0.0338
     60 H          -5.5223  -15.8543    3.2091 H       1  LIG1        0.0308
     61 H          -4.5409  -16.4655    2.1516 H       1  LIG1        0.0308
     62 C          -5.9189  -15.2216    1.3145 C.2     1  LIG1       -0.0743
     63 H          -6.7094  -15.3922    0.8553 H       1  LIG1        0.0577
     64 C          -5.2802  -14.1013    1.0300 C.2     1  LIG1        0.0294
     65 C          -5.8894  -13.0757    0.1540 C.2     1  LIG1        0.3322
     66 C          -3.9583  -13.7224    1.6344 C.3     1  LIG1       -0.0332
     67 H          -4.1572  -13.2499    2.4798 H       1  LIG1        0.0280
     68 H          -3.5055  -14.3932    1.9895 H       1  LIG1        0.0280
     69 H          -3.4781  -13.1482    0.9338 H       1  LIG1        0.0280
     70 C          -8.0284  -27.5198    6.8469 C.3     1  LIG1       -0.0528
     71 H          -8.3282  -28.3290    7.3301 H       1  LIG1        0.0239
     72 H          -7.8342  -26.7157    7.3957 H       1  LIG1        0.0239
     73 H          -7.2168  -27.6684    6.3338 H       1  LIG1        0.0239
     74 C          -9.4766  -28.3074    4.9843 C.3     1  LIG1       -0.0528
     75 H         -10.2284  -28.0877    4.4786 H       1  LIG1        0.0239
     76 H          -8.7398  -28.5577    4.3943 H       1  LIG1        0.0239
     77 H          -9.7345  -29.0912    5.5280 H       1  LIG1        0.0239
     78 C          -8.7562  -21.9556    2.7240 C.3     1  LIG1       -0.0563
     79 H          -9.4052  -22.2694    3.3262 H       1  LIG1        0.0236
     80 H          -8.9662  -21.1388    2.3330 H       1  LIG1        0.0236
     81 H          -8.9319  -22.5743    1.9426 H       1  LIG1        0.0236
@<TRIPOS>BOND
     1     7     6    1
     2     6    65    1
     3     8    65    2
     4    65    64    1
     5    63    62    1
     6    69    66    1
     7    40    39    1
     8    64    62    2
     9    64    66    1
    10    38    37    1
    11    62    59    1
    12    57    56    1
    13     3     2    1
    14     4     5    1
    15     4    39    1
    16    66    68    1
    17    66    67    1
    18    39    37    1
    19    39    41    1
    20    81    78    1
    21    37     2    1
    22    37    36    1
    23    61    59    1
    24    56    59    1
    25    56    58    1
    26    56    50    1
    27    59    60    1
    28    80    78    1
    29    24    22    1
    30    78    36    1
    31    78    79    1
    32    23    22    1
    33    42    41    1
    34    41    50    1
    35    41    35    1
    36    22    25    1
    37    22    19    1
    38    36    25    1
    39    36    35    1
    40    51    50    1
    41    50    52    1
    42    21    19    1
    43    25    26    1
    44    25    27    1
    45    19    20    1
    46    19    17    1
    47    44    43    1
    48    35    43    1
    49    35    32    1
    50    76    74    1
    51    75    74    1
    52    18    17    1
    53    43    46    1
    54    43    45    1
    55    52    54    1
    56    52    53    1
    57    52    55    1
    58    34    32    1
    59    74    77    1
    60    74    16    1
    61    17    16    1
    62    17    28    1
    63    32    29    1
    64    32    33    1
    65    27    29    1
    66    27    28    1
    67    27    47    1
    68    31    29    1
    69    29    30    1
    70    16    15    1
    71    16    70    1
    72    28    47    1
    73    28     9    1
    74    10     9    1
    75    48    47    1
    76    73    70    1
    77    47    49    1
    78     1    15    2
    79    15    12    1
    80     9    11    1
    81     9    12    1
    82    70    71    1
    83    70    72    1
    84    12    14    1
    85    12    13    1
