@<TRIPOS>MOLECULE
C43 H46 N4 O10
 103 114 0 0 0
SMALL
GASTEIGER

@<TRIPOS>ATOM
      1 C           3.9785    9.0156   10.5044 C.2     1  LIG1        0.0533
      2 C           0.3319   12.1486   11.5120 C.3     1  LIG1        0.0790
      3 H          -0.4690   12.0250   12.0634 H       1  LIG1        0.0551
      4 C           0.3115    9.8350   10.4934 C.3     1  LIG1        0.0011
      5 H           0.0534   10.1603    9.6163 H       1  LIG1        0.0427
      6 H          -0.4713    9.4927   10.9533 H       1  LIG1        0.0427
      7 C           1.4196    8.7869   10.4056 C.3     1  LIG1       -0.0237
      8 H           1.2377    8.1379    9.7078 H       1  LIG1        0.0290
      9 H           1.5345    8.3239   11.2497 H       1  LIG1        0.0290
     10 C           2.6725    9.6589   10.0591 C.3     1  LIG1        0.0553
     11 C           2.8622    9.6632    8.5733 C.2     1  LIG1       -0.0043
     12 C           2.2154   10.2540    7.5425 C.2     1  LIG1       -0.0096
     13 H           1.5270   10.8590    7.7035 H       1  LIG1        0.0657
     14 C           2.6057    9.9344    6.1823 C.2     1  LIG1        0.1992
     15 C           3.7435    9.0056    5.9420 C.3     1  LIG1        0.2296
     16 C           4.3861    8.3992    7.0155 C.2     1  LIG1        0.1633
     17 C           3.9913    8.7386    8.3074 C.2     1  LIG1        0.0984
     18 C           1.3473   13.0802   12.2317 C.3     1  LIG1        0.1460
     19 H           0.8739   13.5901   12.9222 H       1  LIG1        0.0779
     20 C           2.5206   12.3431   12.8807 C.3     1  LIG1        0.1011
     21 H           3.1475   13.0163   13.2210 H       1  LIG1        0.0637
     22 C           4.4546    9.1945   11.7474 C.2     1  LIG1        0.0569
     23 C           3.7262   10.1361   12.6440 C.3     1  LIG1       -0.0098
     24 H           4.2984   10.3775   13.3894 H       1  LIG1        0.0323
     25 H           2.9386    9.6958   13.0002 H       1  LIG1        0.0323
     26 C           5.6572   12.4738   12.1890 C.3     1  LIG1       -0.0646
     27 H           5.3389   12.9808   12.9393 H       1  LIG1        0.0230
     28 H           6.3149   12.9865   11.7133 H       1  LIG1        0.0230
     29 H           6.0504   11.6557   12.5001 H       1  LIG1        0.0230
     30 C           4.4917   12.1571   11.2595 C.3     1  LIG1       -0.0460
     31 H           4.8270   11.6174   10.5263 H       1  LIG1        0.0269
     32 H           4.1701   12.9908   10.8825 H       1  LIG1        0.0269
     33 C           3.2975   11.4228   11.8865 C.3     1  LIG1        0.0210
     34 C           2.3503   11.0252   10.7264 C.3     1  LIG1        0.0345
     35 H           2.3490   11.7310   10.0469 H       1  LIG1        0.0481
     36 C           5.7278    8.6023   12.2512 C.2     1  LIG1        0.3365
     37 C           7.3151    6.8810   12.0158 C.3     1  LIG1        0.0820
     38 H           8.0468    7.4547   11.7755 H       1  LIG1        0.0661
     39 H           7.4214    6.0303   11.5828 H       1  LIG1        0.0661
     40 H           7.3053    6.7560   12.9673 H       1  LIG1        0.0661
     41 C           5.6185    6.4109    7.4571 C.3     1  LIG1        0.0786
     42 H           5.9851    6.6324    8.3159 H       1  LIG1        0.0660
     43 H           6.2185    5.8215    6.9948 H       1  LIG1        0.0660
     44 H           4.7694    5.9763    7.5742 H       1  LIG1        0.0660
     45 C          -1.2613   15.1111    6.3775 C.2     1  LIG1        0.0304
     46 C          -5.2849   12.5420    6.5507 C.3     1  LIG1        0.0280
     47 H          -6.1836   12.9013    6.6044 H       1  LIG1        0.0453
     48 H          -5.1926   11.8546    7.2290 H       1  LIG1        0.0453
     49 C          -4.3659   14.2334    8.1037 C.3     1  LIG1        0.0005
     50 H          -4.2692   13.5858    8.8185 H       1  LIG1        0.0427
     51 H          -5.1868   14.7348    8.2305 H       1  LIG1        0.0427
     52 C          -3.1683   15.1466    8.0158 C.3     1  LIG1       -0.0238
     53 H          -2.8738   15.4207    8.8978 H       1  LIG1        0.0290
     54 H          -3.3695   15.9363    7.4901 H       1  LIG1        0.0290
     55 C          -2.0855   14.2590    7.3083 C.3     1  LIG1        0.0531
     56 C          -1.0379   13.8684    8.3379 C.ar    1  LIG1       -0.0124
     57 C          -1.0261   12.9283    9.3504 C.ar    1  LIG1       -0.0476
     58 H          -1.6846   12.2750    9.4065 H       1  LIG1        0.0626
     59 C           0.0100   12.9936   10.2872 C.ar    1  LIG1        0.0154
     60 C           0.9610   13.9991   10.2031 C.ar    1  LIG1        0.1277
     61 C           1.0024   14.9350    9.1771 C.ar    1  LIG1        0.0019
     62 H           1.6590   15.5926    9.1235 H       1  LIG1        0.0673
     63 C          -0.0155   14.8143    8.2366 C.ar    1  LIG1        0.0388
     64 C          -5.0675   11.9441    5.2052 C.3     1  LIG1        0.0985
     65 H          -5.5140   11.0877    5.0332 H       1  LIG1        0.0635
     66 C          -3.8027   12.1784    4.4794 C.3     1  LIG1        0.0938
     67 H          -3.5238   11.4583    3.8756 H       1  LIG1        0.0628
     68 C          -1.4940   15.2461    5.0454 C.2     1  LIG1        0.0551
     69 C          -2.5850   14.3996    4.4257 C.3     1  LIG1       -0.0098
     70 H          -2.4111   14.2903    3.4779 H       1  LIG1        0.0323
     71 H          -3.4389   14.8512    4.5233 H       1  LIG1        0.0323
     72 C          -0.7936   12.0633    3.5511 C.3     1  LIG1       -0.0646
     73 H          -1.4721   11.7381    2.9533 H       1  LIG1        0.0230
     74 H          -0.0524   11.4527    3.5547 H       1  LIG1        0.0230
     75 H          -0.4967   12.9268    3.2583 H       1  LIG1        0.0230
     76 C          -1.3622   12.1713    4.9454 C.3     1  LIG1       -0.0460
     77 H          -0.6833   12.5618    5.5175 H       1  LIG1        0.0269
     78 H          -1.5335   11.2737    5.2723 H       1  LIG1        0.0269
     79 C          -2.6610   12.9964    5.1064 C.3     1  LIG1        0.0201
     80 C          -2.9366   13.1683    6.5959 C.3     1  LIG1        0.0338
     81 H          -2.7980   12.3090    7.0472 H       1  LIG1        0.0481
     82 C          -0.6133   16.1280    4.2867 C.2     1  LIG1        0.3364
     83 C           0.0558   16.9404    2.2019 C.3     1  LIG1        0.0820
     84 H          -0.0002   17.8394    2.5349 H       1  LIG1        0.0661
     85 H          -0.1926   16.9262    1.2748 H       1  LIG1        0.0661
     86 H           0.9557   16.6194    2.2970 H       1  LIG1        0.0661
     87 H           0.3741   16.1479    6.7337 H       1  LIG1        0.1519
     88 N           4.5957    8.3623    9.4345 N.pl3   1  LIG1       -0.2141
     89 N           0.9921   10.8633   11.2729 N.3     1  LIG1       -0.2872
     90 N          -0.2164   15.6281    7.1107 N.pl3   1  LIG1       -0.3163
     91 N          -4.3241   13.5986    6.7984 N.3     1  LIG1       -0.2950
     92 O           2.0111   10.4145    5.2016 O.2     1  LIG1       -0.2890
     93 O           4.1324    8.7997    4.6709 O.3     1  LIG1       -0.3707
     94 H           3.5829    9.1306    4.1598 H       1  LIG1        0.2114
     95 O           5.4431    7.5854    6.7045 O.2     1  LIG1       -0.4939
     96 O           1.9805   11.6415   13.9981 O.3     1  LIG1       -0.3875
     97 H           2.2564   11.9810   14.6922 H       1  LIG1        0.2100
     98 O           6.3782    9.0752   13.1527 O.2     1  LIG1       -0.2453
     99 O           6.0718    7.4831   11.5962 O.3     1  LIG1       -0.4646
    100 O           1.8584   14.0019   11.2363 O.3     1  LIG1       -0.4839
    101 O          -5.0217   12.8842    4.0915 O.3     1  LIG1       -0.3663
    102 O           0.2563   16.8296    4.7612 O.2     1  LIG1       -0.2453
    103 O          -0.8332   16.0968    2.9497 O.3     1  LIG1       -0.4646
@<TRIPOS>BOND
     1    85    83    1
     2    83    86    1
     3    83    84    1
     4    83   103    1
     5   103    82    1
     6    73    72    1
     7    75    72    1
     8    70    69    1
     9    72    74    1
    10    72    76    1
    11    67    66    1
    12   101    66    1
    13   101    64    1
    14    94    93    1
    15    82   102    2
    16    82    68    1
    17    69    71    1
    18    69    68    1
    19    69    79    1
    20    66    79    1
    21    66    64    1
    22    93    15    1
    23    76    79    1
    24    76    78    1
    25    76    77    1
    26    65    64    1
    27    68    45    2
    28    79    80    1
    29    92    14    2
    30    64    46    1
    31    15    14    1
    32    15    16    1
    33    14    12    1
    34    45    90    1
    35    45    55    1
    36    46    47    1
    37    46    91    1
    38    46    48    1
    39    80    91    1
    40    80    81    1
    41    80    55    1
    42    95    16    1
    43    95    41    1
    44    87    90    1
    45    91    49    1
    46    43    41    1
    47    16    17    2
    48    90    63    1
    49    55    52    1
    50    55    56    1
    51    41    44    1
    52    41    42    1
    53    54    52    1
    54    12    13    1
    55    12    11    2
    56    52    49    1
    57    52    53    1
    58    49    51    1
    59    49    50    1
    60    63    56   ar
    61    63    61   ar
    62    17    11    1
    63    17    88    1
    64    56    57   ar
    65    11    10    1
    66    62    61    1
    67    61    60   ar
    68    57    58    1
    69    57    59   ar
    70    88     1    1
    71     5     4    1
    72     8     7    1
    73    35    34    1
    74    10     7    1
    75    10     1    1
    76    10    34    1
    77    60    59   ar
    78    60   100    1
    79    59     2    1
    80     7     4    1
    81     7     9    1
    82     4     6    1
    83     4    89    1
    84     1    22    2
    85    31    30    1
    86    34    89    1
    87    34    33    1
    88    32    30    1
    89   100    18    1
    90    30    33    1
    91    30    26    1
    92    89     2    1
    93     2     3    1
    94     2    18    1
    95    39    37    1
    96    99    37    1
    97    99    36    1
    98    28    26    1
    99    22    36    1
   100    22    23    1
   101    38    37    1
   102    33    23    1
   103    33    20    1
   104    37    40    1
   105    26    29    1
   106    26    27    1
   107    18    20    1
   108    18    19    1
   109    36    98    2
   110    23    25    1
   111    23    24    1
   112    20    21    1
   113    20    96    1
   114    96    97    1
