@<TRIPOS>MOLECULE
1552066.cif
 41 43 0 0 0
SMALL
GASTEIGER

@<TRIPOS>ATOM
      1 C           7.3711    7.9543    2.3662 C.3     1  LIG1        0.1749
      2 C           7.1930    7.1193    1.0839 C.3     1  LIG1        0.0145
      3 H           8.0328    6.6457    0.8605 H       1  LIG1        0.0320
      4 H           6.4749    6.4495    1.2051 H       1  LIG1        0.0320
      5 C           6.8284    8.0906   -0.0108 C.3     1  LIG1        0.1257
      6 C           7.2884    9.4896    0.4430 C.3     1  LIG1        0.1041
      7 H           7.8513    9.9905   -0.2133 H       1  LIG1        0.0459
      8 C           7.8774    9.3685    1.8672 C.3     1  LIG1        0.0270
      9 H           7.4709   10.0766    2.4440 H       1  LIG1        0.0374
     10 C           7.0418    7.6189   -1.4224 C.3     1  LIG1       -0.0240
     11 H           6.5014    6.8181   -1.5848 H       1  LIG1        0.0268
     12 H           7.9889    7.4067   -1.5558 H       1  LIG1        0.0268
     13 H           6.7740    8.3254   -2.0463 H       1  LIG1        0.0268
     14 C           5.8198    9.8240    0.4241 C.2     1  LIG1        0.3152
     15 C           6.0627    8.1020    3.1439 C.2     1  LIG1        0.3247
     16 C           4.3420    6.9167    4.2439 C.3     1  LIG1        0.0817
     17 H           4.0460    5.9961    4.4024 H       1  LIG1        0.0661
     18 H           3.6431    7.4054    3.7613 H       1  LIG1        0.0661
     19 H           4.5151    7.3563    5.1026 H       1  LIG1        0.0661
     20 C           8.3943    7.3086    3.2940 C.2     1  LIG1        0.3247
     21 C           9.3563    7.4198    5.4463 C.3     1  LIG1        0.0817
     22 H           9.1800    7.8031    6.3306 H       1  LIG1        0.0661
     23 H          10.2348    7.7169    5.1303 H       1  LIG1        0.0661
     24 H           9.3444    6.4416    5.5063 H       1  LIG1        0.0661
     25 C           9.3815    9.5123    1.9082 C.ar    1  LIG1       -0.0418
     26 C          10.2123    9.0740    0.8800 C.ar    1  LIG1       -0.0582
     27 H           9.8335    8.6860    0.1000 H       1  LIG1        0.0620
     28 C          11.5802    9.1994    0.9891 C.ar    1  LIG1       -0.0615
     29 H          12.1376    8.9074    0.2772 H       1  LIG1        0.0618
     30 C          12.1493    9.7459    2.1238 C.ar    1  LIG1       -0.0617
     31 H          13.0935    9.8168    2.1970 H       1  LIG1        0.0618
     32 C          11.3375   10.1884    3.1506 C.ar    1  LIG1       -0.0615
     33 H          11.7229   10.5632    3.9336 H       1  LIG1        0.0618
     34 C           9.9660   10.0858    3.0362 C.ar    1  LIG1       -0.0582
     35 H           9.4122   10.4107    3.7359 H       1  LIG1        0.0620
     36 O           5.3994    8.5532    0.1475 O.3     1  LIG1       -0.4571
     37 O           5.1319   10.7880    0.5706 O.2     1  LIG1       -0.2503
     38 O           5.5558    9.1481    3.4609 O.2     1  LIG1       -0.2496
     39 O           5.5618    6.9037    3.4500 O.3     1  LIG1       -0.4671
     40 O           9.1730    6.4539    2.9750 O.2     1  LIG1       -0.2496
     41 O           8.3338    7.8597    4.5164 O.3     1  LIG1       -0.4671
@<TRIPOS>BOND
     1    13    10    1
     2    11    10    1
     3    12    10    1
     4    10     5    1
     5     7     6    1
     6     5    36    1
     7     5     6    1
     8     5     2    1
     9    27    26    1
    10    36    14    1
    11    29    28    1
    12    14     6    1
    13    14    37    2
    14     6     8    1
    15     3     2    1
    16    26    28   ar
    17    26    25   ar
    18    28    30   ar
    19     2     4    1
    20     2     1    1
    21     8    25    1
    22     8     1    1
    23     8     9    1
    24    25    34   ar
    25    30    31    1
    26    30    32   ar
    27     1    15    1
    28     1    20    1
    29    40    20    2
    30    34    32   ar
    31    34    35    1
    32    15    39    1
    33    15    38    2
    34    32    33    1
    35    20    41    1
    36    39    16    1
    37    18    16    1
    38    16    17    1
    39    16    19    1
    40    41    21    1
    41    23    21    1
    42    21    24    1
    43    21    22    1
