@<TRIPOS>MOLECULE
C21 H21 N O6
 49 54 0 0 0
SMALL
GASTEIGER

@<TRIPOS>ATOM
      1 O           7.9201    5.0473    5.0501 O.3     1  LIG1       -0.3503
      2 O           8.2054    2.7166    5.1495 O.3     1  LIG1       -0.3372
      3 O          11.0110    5.9937    3.7480 O.3     1  LIG1       -0.4521
      4 O           2.4596    0.9538    6.5436 O.3     1  LIG1       -0.4526
      5 O          11.9108    5.5743    1.6485 O.3     1  LIG1       -0.4526
      6 O           3.5595    2.9578    6.9115 O.3     1  LIG1       -0.4526
      7 N           6.8219    1.5564    1.8710 N.3     1  LIG1       -0.2956
      8 C           4.1547    2.2855    5.8642 C.ar    1  LIG1        0.1666
      9 C           5.6338    1.8025    4.0632 C.ar    1  LIG1       -0.0206
     10 C           3.4915    1.0967    5.6455 C.ar    1  LIG1        0.1665
     11 C           8.8401    3.9867    5.0843 C.3     1  LIG1        0.1896
     12 H           9.4527    4.0964    5.8413 H       1  LIG1        0.0966
     13 C           5.2273    2.6726    5.1042 C.ar    1  LIG1       -0.0111
     14 H           5.6703    3.4746    5.2646 H       1  LIG1        0.0659
     15 C           9.6104    3.9470    3.8014 C.ar    1  LIG1        0.0589
     16 C           4.9491    0.6247    3.8228 C.ar    1  LIG1       -0.0377
     17 C           9.2466    2.8180    3.0664 C.ar    1  LIG1       -0.0053
     18 C           6.7966    2.2428    3.1699 C.3     1  LIG1        0.0664
     19 H           6.6723    3.1976    2.9867 H       1  LIG1        0.0541
     20 C           6.6388    0.1185    2.0215 C.3     1  LIG1        0.0033
     21 H           7.3504   -0.2332    2.5789 H       1  LIG1        0.0430
     22 H           6.7101   -0.3012    1.1501 H       1  LIG1        0.0430
     23 C          10.5274    4.8122    3.2586 C.ar    1  LIG1        0.1745
     24 C           3.8592    0.2418    4.6378 C.ar    1  LIG1       -0.0126
     25 H           3.4088   -0.5594    4.4954 H       1  LIG1        0.0658
     26 C          11.0670    4.5411    2.0032 C.ar    1  LIG1        0.1667
     27 C           9.7920    2.5493    1.8227 C.ar    1  LIG1       -0.0519
     28 H           9.5390    1.7861    1.3548 H       1  LIG1        0.0622
     29 C          10.7309    3.4383    1.2722 C.ar    1  LIG1       -0.0158
     30 H          11.1105    3.2806    0.4379 H       1  LIG1        0.0655
     31 C           8.1825    2.0871    3.8424 C.3     1  LIG1        0.1070
     32 H           8.4143    1.1382    3.9212 H       1  LIG1        0.0667
     33 C           5.2897   -0.2516    2.6439 C.3     1  LIG1       -0.0144
     34 H           4.5951   -0.1669    1.9721 H       1  LIG1        0.0326
     35 H           5.3150   -1.1778    2.9311 H       1  LIG1        0.0326
     36 C           7.4395    5.4277    6.3397 C.3     1  LIG1        0.0398
     37 H           6.8193    6.1551    6.2488 H       1  LIG1        0.0525
     38 H           8.1775    5.7037    6.8884 H       1  LIG1        0.0525
     39 H           6.9978    4.6806    6.7503 H       1  LIG1        0.0525
     40 C           5.8513    2.1280    0.9419 C.3     1  LIG1       -0.0121
     41 H           4.9660    2.0207    1.2989 H       1  LIG1        0.0391
     42 H           5.9124    1.6767    0.0974 H       1  LIG1        0.0391
     43 H           6.0360    3.0620    0.8208 H       1  LIG1        0.0391
     44 C          12.0753    6.3565    2.8426 C.3     1  LIG1        0.2332
     45 H          12.0292    7.3024    2.6331 H       1  LIG1        0.1166
     46 H          12.9372    6.1726    3.2480 H       1  LIG1        0.1166
     47 C           2.4162    2.1878    7.2526 C.3     1  LIG1        0.2332
     48 H           1.6092    2.6736    7.0207 H       1  LIG1        0.1166
     49 H           2.4050    2.0187    8.2083 H       1  LIG1        0.1166
@<TRIPOS>BOND
     1    42    40    1
     2    30    29    1
     3    43    40    1
     4    40    41    1
     5    40     7    1
     6    22    20    1
     7    29    27   ar
     8    29    26   ar
     9    28    27    1
    10     5    26    1
    11     5    44    1
    12    27    17   ar
    13     7    20    1
    14     7    18    1
    15    34    33    1
    16    26    23   ar
    17    20    21    1
    18    20    33    1
    19    45    44    1
    20    33    35    1
    21    33    16    1
    22    44    46    1
    23    44     3    1
    24    19    18    1
    25    17    15   ar
    26    17    31    1
    27    18    31    1
    28    18     9    1
    29    23     3    1
    30    23    15   ar
    31    15    11    1
    32    16     9   ar
    33    16    24   ar
    34    31    32    1
    35    31     2    1
    36     9    13   ar
    37    25    24    1
    38    24    10   ar
    39     1    11    1
    40     1    36    1
    41    11     2    1
    42    11    12    1
    43    13    14    1
    44    13     8   ar
    45    10     8   ar
    46    10     4    1
    47     8     6    1
    48    37    36    1
    49    36    39    1
    50    36    38    1
    51     4    47    1
    52     6    47    1
    53    48    47    1
    54    47    49    1
