@<TRIPOS>MOLECULE
4(C28 H44 O5), 4(H2 O)
 318 334 0 0 0
SMALL
GASTEIGER

@<TRIPOS>ATOM
      1 C           7.1371    7.8861   18.4999 C.3     1  LIG1       -0.0447
      2 H           7.5828    7.7195   19.3689 H       1  LIG1        0.0271
      3 H           6.7423    7.0315   18.1936 H       1  LIG1        0.0271
      4 C           5.2259    6.9590   12.5551 C.3     2  LIG2       -0.0447
      5 H           5.3186    6.1141   12.0483 H       2  LIG2        0.0271
      6 H           5.7535    6.8714   13.3891 H       2  LIG2        0.0271
      7 C           5.4795   13.7826   16.6695 C.3     3  LIG3       -0.0447
      8 H           5.8891   13.9375   17.5580 H       3  LIG3        0.0271
      9 H           5.3135   12.8103   16.5793 H       3  LIG3        0.0271
     10 C           3.7516   13.4892   10.5233 C.3     4  LIG4       -0.0447
     11 H           4.3973   12.7886   10.7914 H       4  LIG4        0.0271
     12 H           4.0192   14.3334   10.9665 H       4  LIG4        0.0271
     13 C           8.1827    8.3404   17.4860 C.3     1  LIG1       -0.0263
     14 H           8.6491    9.1431   17.8290 H       1  LIG1        0.0290
     15 H           8.8557    7.6243   17.3613 H       1  LIG1        0.0290
     16 C           3.7521    7.1654   12.9159 C.3     2  LIG2       -0.0263
     17 H           3.2087    7.1505   12.0891 H       2  LIG2        0.0290
     18 H           3.4501    6.4192   13.4923 H       2  LIG2        0.0290
     19 C           6.4674   14.2168   15.5870 C.3     3  LIG3       -0.0263
     20 H           6.7169   15.1642   15.7278 H       3  LIG3        0.0290
     21 H           7.2904   13.6692   15.6535 H       3  LIG3        0.0290
     22 C           2.3565   13.0950   11.0008 C.3     4  LIG4       -0.0263
     23 H           2.1329   12.1980   10.6451 H       4  LIG4        0.0290
     24 H           2.3553   13.0396   11.9883 H       4  LIG4        0.0290
     25 C           7.5352    8.6634   16.1497 C.3     1  LIG1        0.0555
     26 H           7.0785    7.8406   15.8118 H       1  LIG1        0.0593
     27 C           3.5198    8.4849   13.6434 C.3     2  LIG2        0.0555
     28 H           3.9275    8.4334   14.5549 H       2  LIG2        0.0593
     29 C           5.8656   14.0556   14.2131 C.3     3  LIG3        0.0555
     30 H           5.6713   13.0850   14.0656 H       3  LIG3        0.0593
     31 C           1.2978   14.0863   10.5547 C.3     4  LIG4        0.0555
     32 H           1.4321   14.9284   11.0769 H       4  LIG4        0.0593
     33 C           6.4943    9.7502   16.3325 C.3     1  LIG1       -0.0234
     34 H           6.0751    9.9631   15.4616 H       1  LIG1        0.0293
     35 H           6.9241   10.5710   16.6777 H       1  LIG1        0.0293
     36 C           4.1229    9.6597   12.8946 C.3     2  LIG2       -0.0234
     37 H           4.0557   10.4736   13.4563 H       2  LIG2        0.0293
     38 H           3.6060    9.8181   12.0651 H       2  LIG2        0.0293
     39 C           4.5689   14.8267   14.0963 C.3     3  LIG3       -0.0234
     40 H           4.1751   14.6796   13.1997 H       3  LIG3        0.0293
     41 H           4.7478   15.7959   14.1999 H       3  LIG3        0.0293
     42 C           1.3873   14.4411    9.0767 C.3     4  LIG4       -0.0234
     43 H           0.7873   15.2053    8.8869 H       4  LIG4        0.0293
     44 H           1.0786   13.6713    8.5367 H       4  LIG4        0.0293
     45 C           5.4324    9.2703   17.3135 C.3     1  LIG1       -0.0305
     46 H           5.0630    8.4205   16.9367 H       1  LIG1        0.0308
     47 C           5.5885    9.4176   12.5348 C.3     2  LIG2       -0.0305
     48 H           6.0834    9.3010   13.3963 H       2  LIG2        0.0308
     49 C           3.5819   14.3723   15.1675 C.3     3  LIG3       -0.0305
     50 H           3.4437   13.3923   15.0250 H       3  LIG3        0.0308
     51 C           2.8121   14.8065    8.6634 C.3     4  LIG4       -0.0305
     52 H           3.0769   15.6012    9.2083 H       4  LIG4        0.0308
     53 C           4.2569   10.2361   17.4284 C.3     1  LIG1       -0.0207
     54 H           4.5523   11.0535   17.9010 H       1  LIG1        0.0294
     55 H           3.9600   10.4974   16.5218 H       1  LIG1        0.0294
     56 C           6.2006   10.6275   11.8324 C.3     2  LIG2       -0.0207
     57 H           5.7607   10.7484   10.9545 H       2  LIG2        0.0294
     58 H           6.0262   11.4386   12.3721 H       2  LIG2        0.0294
     59 C           2.2142   15.0203   15.0300 C.3     3  LIG3       -0.0207
     60 H           2.2827   15.9798   15.2649 H       3  LIG3        0.0294
     61 H           1.9175   14.9586   14.0871 H       3  LIG3        0.0294
     62 C           2.9015   15.2254    7.1983 C.3     4  LIG4       -0.0207
     63 H           2.7329   14.4416    6.6178 H       4  LIG4        0.0294
     64 H           2.2089   15.9063    7.0040 H       4  LIG4        0.0294
     65 C           3.0939    9.6167   18.1775 C.3     1  LIG1        0.0851
     66 H           2.3913   10.3135   18.3183 H       1  LIG1        0.0622
     67 C           7.6934   10.4799   11.6252 C.3     2  LIG2        0.0851
     68 H           7.9858   11.2287   11.0313 H       2  LIG2        0.0622
     69 C           1.1841   14.3583   15.9240 C.3     3  LIG3        0.0851
     70 H           0.3257   14.8699   15.8693 H       3  LIG3        0.0622
     71 C           4.2764   15.7981    6.8939 C.3     4  LIG4        0.0851
     72 H           4.3230   16.0664    5.9318 H       4  LIG4        0.0622
     73 C           3.5074    9.0544   19.5316 C.3     1  LIG1        0.1073
     74 C           8.0552    9.1751   10.9190 C.3     2  LIG2        0.1073
     75 C           1.6287   14.2808   17.3850 C.3     3  LIG3        0.1073
     76 C           5.3713   14.7667    7.1923 C.3     4  LIG4        0.1073
     77 C           4.8418    8.2539   19.5066 C.3     1  LIG1       -0.0033
     78 H           4.6371    7.4014   19.0259 H       1  LIG1        0.0335
     79 C           7.3378    7.9341   11.5417 C.3     2  LIG2       -0.0033
     80 H           7.7113    7.8298   12.4633 H       2  LIG2        0.0335
     81 C           3.1086   13.8325   17.5572 C.3     3  LIG3       -0.0033
     82 H           3.1271   12.8643   17.3109 H       3  LIG3        0.0335
     83 C           5.2423   14.1568    8.6245 C.3     4  LIG4       -0.0033
     84 H           5.4587   14.8981    9.2611 H       4  LIG4        0.0335
     85 C           5.9977    8.9168   18.7112 C.3     1  LIG1       -0.0235
     86 C           5.8026    8.1169   11.7139 C.3     2  LIG2       -0.0235
     87 C           4.1298   14.5283   16.6040 C.3     3  LIG3       -0.0235
     88 C           3.8168   13.6761    8.9992 C.3     4  LIG4       -0.0235
     89 C           5.2604    7.8346   20.9410 C.3     1  LIG1       -0.0463
     90 H           5.9145    7.0942   20.8705 H       1  LIG1        0.0269
     91 H           5.7236    8.6000   21.3670 H       1  LIG1        0.0269
     92 C           7.6861    6.6243   10.7821 C.3     2  LIG2       -0.0463
     93 H           7.5284    5.8632   11.3959 H       2  LIG2        0.0269
     94 H           7.0536    6.5295   10.0263 H       2  LIG2        0.0269
     95 C           3.5460   13.8922   19.0437 C.3     3  LIG3       -0.0463
     96 H           4.3539   13.3317   19.1555 H       3  LIG3        0.0269
     97 H           3.7981   14.8245   19.2586 H       3  LIG3        0.0269
     98 C           6.3026   13.0506    8.8797 C.3     4  LIG4       -0.0463
     99 H           6.4244   12.9617    9.8584 H       4  LIG4        0.0269
    100 H           5.9350   12.1915    8.5511 H       4  LIG4        0.0269
    101 C           4.1129    7.3826   21.8719 C.3     1  LIG1       -0.0416
    102 H           3.8555    6.4495   21.6596 H       1  LIG1        0.0272
    103 H           4.4116    7.4166   22.8158 H       1  LIG1        0.0272
    104 C           9.1133    6.4992   10.2256 C.3     2  LIG2       -0.0416
    105 H           9.7320    6.2093   10.9425 H       2  LIG2        0.0272
    106 H           9.1369    5.8242    9.5034 H       2  LIG2        0.0272
    107 C           2.4919   13.4290   20.0619 C.3     3  LIG3       -0.0416
    108 H           2.4705   12.4403   20.0981 H       3  LIG3        0.0272
    109 H           2.7245   13.7665   20.9640 H       3  LIG3        0.0272
    110 C           7.6841   13.2503    8.2446 C.3     4  LIG4       -0.0416
    111 H           8.2391   13.8314    8.8222 H       4  LIG4        0.0272
    112 H           8.1419   12.3776    8.1529 H       4  LIG4        0.0272
    113 C           2.9232    8.3036   21.6752 C.3     1  LIG1        0.0351
    114 C           9.5425    7.8534    9.6857 C.3     2  LIG2        0.0351
    115 C           1.1240   13.9608   19.6481 C.3     3  LIG3        0.0351
    116 C           7.5176   13.8929    6.8747 C.3     4  LIG4        0.0351
    117 C           2.4637    8.1885   20.2111 C.3     1  LIG1        0.0275
    118 H           2.5841    7.2435   19.9086 H       1  LIG1        0.0362
    119 C           9.5394    8.8607   10.8449 C.3     2  LIG2        0.0275
    120 H           9.8228    8.4010   11.6861 H       2  LIG2        0.0362
    121 C           0.7793   13.3838   18.2699 C.3     3  LIG3        0.0275
    122 H           1.1239   12.4468   18.2128 H       3  LIG3        0.0362
    123 C           6.7990   15.2464    7.0472 C.3     4  LIG4        0.0275
    124 H           7.0896   15.6575    7.9107 H       4  LIG4        0.0362
    125 C           0.9667    8.5276   20.1893 C.3     1  LIG1        0.0618
    126 H           0.5332    8.0180   19.4457 H       1  LIG1        0.0597
    127 C          10.5676    9.9397   10.4830 C.3     2  LIG2        0.0618
    128 H          10.9660   10.3027   11.3263 H       2  LIG2        0.0597
    129 C          -0.7552   13.3589   18.1917 C.3     3  LIG3        0.0618
    130 H          -1.0360   12.6047   17.5987 H       3  LIG3        0.0597
    131 C           7.2780   16.1332    5.8903 C.3     4  LIG4        0.0618
    132 H           7.2613   17.0876    6.1861 H       4  LIG4        0.0597
    133 C           0.5299    7.9159   21.5231 C.3     1  LIG1       -0.0204
    134 H           0.4026    6.9384   21.4294 H       1  LIG1        0.0294
    135 H          -0.3231    8.3188   21.8227 H       1  LIG1        0.0294
    136 C          11.6259    9.1113    9.7521 C.3     2  LIG2       -0.0204
    137 H          12.2332    8.6801   10.4029 H       2  LIG2        0.0294
    138 H          12.1639    9.6904    9.1580 H       2  LIG2        0.0294
    139 C          -1.1085   13.0093   19.6345 C.3     3  LIG3       -0.0204
    140 H          -1.0156   12.0357   19.7863 H       3  LIG3        0.0294
    141 H          -2.0425   13.2711   19.8319 H       3  LIG3        0.0294
    142 C           8.7406   15.6785    5.7625 C.3     4  LIG4       -0.0204
    143 H           9.2998   16.1118    6.4547 H       4  LIG4        0.0294
    144 H           9.1003   15.9149    4.8716 H       4  LIG4        0.0294
    145 C           1.6547    8.2158   22.5438 C.3     1  LIG1        0.0010
    146 H           1.7323    7.4836   23.2187 H       1  LIG1        0.0336
    147 C          10.8796    8.0369    8.9222 C.3     2  LIG2        0.0010
    148 H          11.3973    7.1808    8.8965 H       2  LIG2        0.0336
    149 C          -0.1300   13.7880   20.5371 C.3     3  LIG3        0.0010
    150 H           0.0848   13.2689   21.3646 H       3  LIG3        0.0336
    151 C           8.7319   14.1406    5.9548 C.3     4  LIG4        0.0010
    152 H           9.5771   13.8336    6.3923 H       4  LIG4        0.0336
    153 C           3.3605    9.7815   21.7369 C.3     1  LIG1        0.1670
    154 H           4.1601    9.8938   22.3264 H       1  LIG1        0.0916
    155 C           8.4796    8.4650    8.7540 C.3     2  LIG2        0.1670
    156 H           7.9212    7.7519    8.3304 H       2  LIG2        0.0916
    157 C           1.1969   15.4682   19.3457 C.3     3  LIG3        0.1670
    158 H           1.9315   15.8976   19.8702 H       3  LIG3        0.0916
    159 C           6.5085   13.1196    6.0093 C.3     4  LIG4        0.1670
    160 H           6.4777   12.1547    6.2700 H       4  LIG4        0.0916
    161 C           6.5714   10.1610   19.4234 C.3     1  LIG1       -0.0590
    162 H           7.0506    9.8830   20.2324 H       1  LIG1        0.0235
    163 H           5.8384   10.7636   19.6688 H       1  LIG1        0.0235
    164 H           7.1888   10.6251   18.8220 H       1  LIG1        0.0235
    165 C           5.0699    8.1675   10.3578 C.3     2  LIG2       -0.0590
    166 H           5.0412    7.2695    9.9687 H       2  LIG2        0.0235
    167 H           5.5474    8.7709    9.7504 H       2  LIG2        0.0235
    168 H           4.1566    8.4940   10.4916 H       2  LIG2        0.0235
    169 C           4.3564   16.0101   16.9722 C.3     3  LIG3       -0.0590
    170 H           4.8839   16.0642   17.7954 H       3  LIG3        0.0235
    171 H           3.4915   16.4493   17.1070 H       3  LIG3        0.0235
    172 H           4.8392   16.4580   16.2459 H       3  LIG3        0.0235
    173 C           3.4446   12.3574    8.2959 C.3     4  LIG4       -0.0590
    174 H           3.9341   11.6160    8.7094 H       4  LIG4        0.0235
    175 H           3.6820   12.4143    7.3470 H       4  LIG4        0.0235
    176 H           2.4818   12.2023    8.3832 H       4  LIG4        0.0235
    177 C           1.6085    9.6169   23.2360 C.3     1  LIG1        0.0736
    178 C          10.4173    8.4490    7.5020 C.3     2  LIG2        0.0736
    179 C          -0.5129   15.2527   20.8825 C.3     3  LIG3        0.0736
    180 C           8.4124   13.2767    4.7164 C.3     4  LIG4        0.0736
    181 C           2.4509    9.6126   24.5051 C.3     1  LIG1       -0.0354
    182 H           3.3352    9.2361   24.3101 H       1  LIG1        0.0257
    183 H           2.0081    9.0674   25.1904 H       1  LIG1        0.0257
    184 H           2.5527   10.5299   24.8330 H       1  LIG1        0.0257
    185 C          10.0574    7.2069    6.6917 C.3     2  LIG2       -0.0354
    186 H           9.4956    6.6139    7.2343 H       2  LIG2        0.0257
    187 H          10.8772    6.7351    6.4355 H       2  LIG2        0.0257
    188 H           9.5677    7.4728    5.8862 H       2  LIG2        0.0257
    189 C           0.2818   15.7276   22.0964 C.3     3  LIG3       -0.0354
    190 H           1.2308   15.5168   21.9690 H       3  LIG3        0.0257
    191 H          -0.0471   15.2745   22.8997 H       3  LIG3        0.0257
    192 H           0.1737   16.6960   22.1993 H       3  LIG3        0.0257
    193 C           8.8839   11.8347    4.9196 C.3     4  LIG4       -0.0354
    194 H           8.5996   11.5186    5.8023 H       4  LIG4        0.0257
    195 H           9.8614   11.7999    4.8596 H       4  LIG4        0.0257
    196 H           8.4915   11.2612    4.2264 H       4  LIG4        0.0257
    197 C           0.2222   10.1824   23.4859 C.3     1  LIG1       -0.0199
    198 H           0.3052   11.1141   23.8088 H       1  LIG1        0.0296
    199 H          -0.2794   10.2010   22.6311 H       1  LIG1        0.0296
    200 C          11.3147    9.3923    6.7039 C.3     2  LIG2       -0.0199
    201 H          11.4189   10.2357    7.2127 H       2  LIG2        0.0296
    202 H          10.8613    9.6126    5.8527 H       2  LIG2        0.0296
    203 C          -1.9909   15.5573   21.0360 C.3     3  LIG3       -0.0199
    204 H          -2.4515   15.3438   20.1869 H       3  LIG3        0.0296
    205 H          -2.1016   16.5272   21.2039 H       3  LIG3        0.0296
    206 C           8.9049   13.8384    3.3921 C.3     4  LIG4       -0.0199
    207 H           8.5215   14.7401    3.2573 H       4  LIG4        0.0296
    208 H           8.5882   13.2603    2.6553 H       4  LIG4        0.0296
    209 C          -0.5599    9.3724   24.5027 C.3     1  LIG1       -0.0291
    210 H          -0.5693    8.4291   24.2046 H       1  LIG1        0.0311
    211 H          -0.0742    9.4070   25.3655 H       1  LIG1        0.0311
    212 C          12.7027    8.8393    6.3885 C.3     2  LIG2       -0.0291
    213 H          13.1852    8.7017    7.2415 H       2  LIG2        0.0311
    214 H          12.5953    7.9510    5.9630 H       2  LIG2        0.0311
    215 C          -2.6592   14.7776   22.1734 C.3     3  LIG3       -0.0291
    216 H          -2.6003   13.8120   21.9618 H       3  LIG3        0.0311
    217 H          -2.1350   14.9305   23.0005 H       3  LIG3        0.0311
    218 C          10.4295   13.9277    3.3411 C.3     4  LIG4       -0.0291
    219 H          10.7511   14.1798    4.2432 H       4  LIG4        0.0311
    220 H          10.7823   13.0245    3.1446 H       4  LIG4        0.0311
    221 C          -1.9718    9.8008   24.7447 C.2     1  LIG1       -0.0740
    222 C          13.5584    9.6995    5.4895 C.2     2  LIG2       -0.0740
    223 C          -4.1051   15.1040   22.4692 C.2     3  LIG3       -0.0740
    224 C          11.0289   14.8914    2.3444 C.2     4  LIG4       -0.0740
    225 C          -2.7783    8.7947   25.5775 C.3     1  LIG1       -0.0258
    226 H          -2.6455    7.9034   25.1448 H       1  LIG1        0.0340
    227 C          14.9462    9.1883    5.1760 C.3     2  LIG2       -0.0258
    228 H          15.4052    9.9068    4.6533 H       2  LIG2        0.0340
    229 C          -4.6896   14.2732   23.5852 C.3     3  LIG3       -0.0258
    230 H          -3.9448   14.0781   24.2238 H       3  LIG3        0.0340
    231 C          12.5184   14.7135    2.1053 C.3     4  LIG4       -0.0258
    232 H          12.8203   15.4736    1.5303 H       4  LIG4        0.0340
    233 C          -4.2107    9.0327   25.5910 C.3     1  LIG1       -0.0590
    234 H          -4.5386    9.1020   24.6699 H       1  LIG1        0.0235
    235 H          -4.6604    8.2863   26.0419 H       1  LIG1        0.0235
    236 H          -4.3991    9.8657   26.0707 H       1  LIG1        0.0235
    237 C          15.7870    8.9527    6.4283 C.3     2  LIG2       -0.0590
    238 H          15.7704    9.7554    6.9896 H       2  LIG2        0.0235
    239 H          16.7112    8.7536    6.1693 H       2  LIG2        0.0235
    240 H          15.4189    8.1955    6.9296 H       2  LIG2        0.0235
    241 C          -5.7723   14.9586   24.3749 C.3     3  LIG3       -0.0590
    242 H          -5.4265   15.7981   24.7443 H       3  LIG3        0.0235
    243 H          -6.0607   14.3745   25.1088 H       3  LIG3        0.0235
    244 H          -6.5349   15.1469   23.7896 H       3  LIG3        0.0235
    245 C          12.8168   13.4279    1.3504 C.3     4  LIG4       -0.0590
    246 H          12.5986   12.6588    1.9165 H       4  LIG4        0.0235
    247 H          13.7674   13.4009    1.1130 H       4  LIG4        0.0235
    248 H          12.2756   13.3966    0.5325 H       4  LIG4        0.0235
    249 C          -2.2252    8.6779   26.9428 C.3     1  LIG1       -0.0590
    250 H          -1.2595    8.5200   26.8910 H       1  LIG1        0.0235
    251 H          -2.3946    9.5087   27.4355 H       1  LIG1        0.0235
    252 H          -2.6558    7.9315   27.4067 H       1  LIG1        0.0235
    253 C          14.9245    7.9661    4.3005 C.3     2  LIG2       -0.0590
    254 H          14.4487    7.2435    4.7613 H       2  LIG2        0.0235
    255 H          15.8428    7.6849    4.1089 H       2  LIG2        0.0235
    256 H          14.4653    8.1760    3.4588 H       2  LIG2        0.0235
    257 C          -5.1671   12.9119   23.0220 C.3     3  LIG3       -0.0590
    258 H          -5.9891   13.0418   22.5039 H       3  LIG3        0.0235
    259 H          -5.3429   12.2953   23.7632 H       3  LIG3        0.0235
    260 H          -4.4726   12.5355   22.4416 H       3  LIG3        0.0235
    261 C          13.3272   14.7747    3.4003 C.3     4  LIG4       -0.0590
    262 H          13.1566   13.9677    3.9314 H       4  LIG4        0.0235
    263 H          13.0630   15.5644    3.9146 H       4  LIG4        0.0235
    264 H          14.2830   14.8267    3.1854 H       4  LIG4        0.0235
    265 C          -2.4189   10.9583   24.3317 C.2     1  LIG1       -0.0992
    266 H          -1.8414   11.5511   23.8640 H       1  LIG1        0.0534
    267 H          -3.3208   11.2071   24.4972 H       1  LIG1        0.0534
    268 C          13.1606   10.8531    4.9975 C.2     2  LIG2       -0.0992
    269 H          12.2947   11.1833    5.2026 H       2  LIG2        0.0534
    270 H          13.7393   11.3564    4.4351 H       2  LIG2        0.0534
    271 C          -4.7800   16.0512   21.8179 C.2     3  LIG3       -0.0992
    272 H          -5.6835   16.2330   22.0482 H       3  LIG3        0.0534
    273 H          -4.3585   16.5423   21.1223 H       3  LIG3        0.0534
    274 C          10.3574   15.8535    1.7344 C.2     4  LIG4       -0.0992
    275 H           9.4321   15.9733    1.9141 H       4  LIG4        0.0534
    276 H          10.8004   16.4234    1.1178 H       4  LIG4        0.0534
    277 O           8.5060    9.0795   15.1723 O.3     1  LIG1       -0.3918
    278 O           2.1027    8.6504   13.7715 O.3     2  LIG2       -0.3918
    279 O           6.7690   14.4931   13.1956 O.3     3  LIG3       -0.3918
    280 O          -0.0197   13.5822   10.8677 O.3     4  LIG4       -0.3918
    281 O           2.5268    8.5291   17.4198 O.3     1  LIG1       -0.3889
    282 O           8.4245   10.6015   12.8543 O.3     2  LIG2       -0.3889
    283 O           0.9576   13.0087   15.4848 O.3     3  LIG3       -0.3889
    284 O           4.4744   16.9430    7.7181 O.3     4  LIG4       -0.3889
    285 O           0.6274    9.9055   20.0578 O.3     1  LIG1       -0.3914
    286 O          10.0788   11.0377    9.6893 O.3     2  LIG2       -0.3914
    287 O          -1.3699   14.5610   17.7299 O.3     3  LIG3       -0.3914
    288 O           6.5505   16.0144    4.6706 O.3     4  LIG4       -0.3914
    289 O           3.6369   10.2045   20.4344 O.3     1  LIG1       -0.3411
    290 O           7.6857    9.3382    9.5211 O.3     2  LIG2       -0.3411
    291 O           1.4190   15.6166   17.9621 O.3     3  LIG3       -0.3411
    292 O           5.2566   13.7224    6.1683 O.3     4  LIG4       -0.3411
    293 O           2.2388   10.4983   22.2554 O.3     1  LIG1       -0.3443
    294 O           9.1897    9.2123    7.7675 O.3     2  LIG2       -0.3443
    295 O          -0.0619   16.0123   19.7095 O.3     3  LIG3       -0.3443
    296 O           6.9524   13.2707    4.6589 O.3     4  LIG4       -0.3443
    297 O           8.8776    2.2864   10.5398 O.3     5  HOH5       -0.4105
    298 O           7.0627   21.0745    8.2160 O.3     6  HOH6       -0.4105
    299 O           7.9503   15.5021   10.8586 O.3     7  HOH7       -0.4105
    300 O          10.1143    7.0436   14.4964 O.3     8  HOH8        0.0000
    301 H           8.9150    8.3923   14.9435 H       1  LIG1        0.2098
    302 H           2.0641    8.8142   17.0063 H       1  LIG1        0.2099
    303 H           0.9609   10.2768   20.6138 H       1  LIG1        0.2098
    304 H           1.9727    9.2556   14.3462 H       2  LIG2        0.2098
    305 H           8.2483    9.9977   13.4323 H       2  LIG2        0.2099
    306 H           9.6378   10.7030    9.0908 H       2  LIG2        0.2098
    307 H           7.3756   14.0629   13.2404 H       3  LIG3        0.2098
    308 H           0.5032   13.0461   14.8547 H       3  LIG3        0.2099
    309 H          -1.0333   15.1599   18.1001 H       3  LIG3        0.2098
    310 H          -0.0562   12.9314   10.4916 H       4  LIG4        0.2098
    311 H           4.8213   17.5506    7.2990 H       4  LIG4        0.2099
    312 H           6.5106   15.2767    4.5022 H       4  LIG4        0.2098
    313 H           9.1726    1.5015   10.6355 H       0  HOH0        0.2052
    314 H           8.4286    2.3842   11.1800 H       0  HOH0        0.2052
    315 H           7.8935   20.8867    8.2777 H       0  HOH0        0.2052
    316 H           7.0524   22.0118    8.2441 H       0  HOH0        0.2052
    317 H           7.2755   15.3091   11.5374 H       0  HOH0        0.2052
    318 H           8.7337   14.8872   10.9042 H       0  HOH0        0.2052
@<TRIPOS>BOND
     1   248   245    1
     2   247   245    1
     3   276   274    1
     4   245   246    1
     5   245   231    1
     6   232   231    1
     7   274   275    1
     8   274   224    2
     9   231   224    1
    10   231   261    1
    11   224   218    1
    12   208   206    1
    13   220   218    1
    14   264   261    1
    15   207   206    1
    16   218   206    1
    17   218   219    1
    18   206   180    1
    19   261   263    1
    20   261   262    1
    21   256   253    1
    22   255   253    1
    23   196   193    1
    24   253   254    1
    25   253   227    1
    26   270   268    1
    27   312   288    1
    28   228   227    1
    29   296   180    1
    30   296   159    1
    31   288   131    1
    32   180   193    1
    33   180   151    1
    34   195   193    1
    35   144   142    1
    36   193   194    1
    37   268   269    1
    38   268   222    2
    39   227   222    1
    40   227   237    1
    41   222   212    1
    42   142   131    1
    43   142   151    1
    44   142   143    1
    45   202   200    1
    46   188   185    1
    47   131   132    1
    48   131   123    1
    49    72    71    1
    50   151   152    1
    51   151   116    1
    52   214   212    1
    53   159   292    1
    54   159   160    1
    55   159   116    1
    56   292    76    1
    57   239   237    1
    58   212   200    1
    59   212   213    1
    60   237   240    1
    61   237   238    1
    62   187   185    1
    63    63    62    1
    64   185   186    1
    65   185   178    1
    66   200   201    1
    67   200   178    1
    68   116   123    1
    69   116   110    1
    70    71    76    1
    71    71    62    1
    72    71   284    1
    73    64    62    1
    74   123    76    1
    75   123   124    1
    76    76    83    1
    77    62    51    1
    78   311   284    1
    79   175   173    1
    80   178   294    1
    81   178   147    1
    82   294   155    1
    83   112   110    1
    84   298   316    1
    85   298   315    1
    86   110   111    1
    87   110    98    1
    88   173   176    1
    89   173   174    1
    90   173    88    1
    91   156   155    1
    92    44    42    1
    93   100    98    1
    94    83    98    1
    95    83    88    1
    96    83    84    1
    97    51    88    1
    98    51    42    1
    99    51    52    1
   100   155   290    1
   101   155   114    1
   102    98    99    1
   103    43    42    1
   104   148   147    1
   105   147   114    1
   106   147   136    1
   107    88    10    1
   108    42    31    1
   109   306   286    1
   110   138   136    1
   111   106   104    1
   112   290    74    1
   113   114   104    1
   114   114   119    1
   115   286   127    1
   116   167   165    1
   117   136   137    1
   118   136   127    1
   119   166   165    1
   120    94    92    1
   121   104    92    1
   122   104   105    1
   123   165   168    1
   124   165    86    1
   125   127   119    1
   126   127   128    1
   127   310   280    1
   128    10    11    1
   129    10    12    1
   130    10    22    1
   131   297   313    1
   132   297   314    1
   133    31   280    1
   134    31    22    1
   135    31    32    1
   136    23    22    1
   137    92    93    1
   138    92    79    1
   139   119    74    1
   140   119   120    1
   141   299   318    1
   142   299   317    1
   143    74    79    1
   144    74    67    1
   145    57    56    1
   146    22    24    1
   147    68    67    1
   148    79    86    1
   149    79    80    1
   150    67    56    1
   151    67   282    1
   152    86    47    1
   153    86     4    1
   154    56    58    1
   155    56    47    1
   156     5     4    1
   157    38    36    1
   158    17    16    1
   159    47    36    1
   160    47    48    1
   161     4    16    1
   162     4     6    1
   163   282   305    1
   164    36    37    1
   165    36    27    1
   166    16    18    1
   167    16    27    1
   168   279   307    1
   169   279    29    1
   170    40    39    1
   171    27   278    1
   172    27    28    1
   173   278   304    1
   174    30    29    1
   175    61    59    1
   176    39    41    1
   177    39    29    1
   178    39    49    1
   179    29    19    1
   180   308   283    1
   181   301   277    1
   182    50    49    1
   183    59    49    1
   184    59    60    1
   185    59    69    1
   186    49    87    1
   187   277    25    1
   188    34    33    1
   189   283    69    1
   190    19    21    1
   191    19    20    1
   192    19     7    1
   193    26    25    1
   194    70    69    1
   195    69    75    1
   196    25    33    1
   197    25    13    1
   198   172   169    1
   199    33    35    1
   200    33    45    1
   201    55    53    1
   202     9     7    1
   203    87     7    1
   204    87   169    1
   205    87    81    1
   206     7     8    1
   207    46    45    1
   208   169   171    1
   209   169   170    1
   210   302   281    1
   211    82    81    1
   212    45    53    1
   213    45    85    1
   214    15    13    1
   215    75    81    1
   216    75   291    1
   217    75   121    1
   218   281    65    1
   219    53    54    1
   220    53    65    1
   221    13    14    1
   222    13     1    1
   223    81    95    1
   224   130   129    1
   225   287   309    1
   226   287   129    1
   227   291   157    1
   228    65    66    1
   229    65    73    1
   230   129   121    1
   231   129   139    1
   232     3     1    1
   233   122   121    1
   234   121   115    1
   235     1    85    1
   236     1     2    1
   237    85   161    1
   238    85    77    1
   239   164   161    1
   240    78    77    1
   241    95    96    1
   242    95    97    1
   243    95   107    1
   244   157   115    1
   245   157   295    1
   246   157   158    1
   247   161   163    1
   248   161   162    1
   249   126   125    1
   250    77    73    1
   251    77    89    1
   252    73   117    1
   253    73   289    1
   254   139   140    1
   255   139   141    1
   256   139   149    1
   257   115   107    1
   258   115   149    1
   259   295   179    1
   260   118   117    1
   261   285   125    1
   262   285   303    1
   263   107   108    1
   264   107   109    1
   265   204   203    1
   266   125   117    1
   267   125   133    1
   268   117   113    1
   269   289   153    1
   270   149   179    1
   271   149   150    1
   272    90    89    1
   273   179   203    1
   274   179   189    1
   275    89    91    1
   276    89   101    1
   277   203   205    1
   278   203   215    1
   279   273   271    1
   280   134   133    1
   281   133   135    1
   282   133   145    1
   283   102   101    1
   284   113   153    1
   285   113   101    1
   286   113   145    1
   287   153   293    1
   288   153   154    1
   289   271   272    1
   290   271   223    2
   291   101   103    1
   292   216   215    1
   293   190   189    1
   294   189   192    1
   295   189   191    1
   296   215   223    1
   297   215   217    1
   298   293   177    1
   299   260   257    1
   300   223   229    1
   301   258   257    1
   302   145   146    1
   303   145   177    1
   304   199   197    1
   305   257   229    1
   306   257   259    1
   307   177   197    1
   308   177   181    1
   309   197   198    1
   310   197   209    1
   311   229   230    1
   312   229   241    1
   313   244   241    1
   314   266   265    1
   315   210   209    1
   316   182   181    1
   317   265   267    1
   318   265   221    2
   319   241   242    1
   320   241   243    1
   321   209   221    1
   322   209   211    1
   323   181   184    1
   324   181   183    1
   325   234   233    1
   326   221   225    1
   327   226   225    1
   328   225   233    1
   329   225   249    1
   330   233   235    1
   331   233   236    1
   332   250   249    1
   333   249   252    1
   334   249   251    1
