@<TRIPOS>MOLECULE
Heliojatrone C
 89 90 0 0 0
SMALL
GASTEIGER

@<TRIPOS>ATOM
      1 O          -8.8785    3.7227    5.2172 O.3     1  LIG1       -0.4572
      2 O         -11.0623    3.1534    5.3044 O.2     1  LIG1       -0.2450
      3 O          -8.0524   -0.9151    5.4971 O.3     1  LIG1       -0.4605
      4 O         -10.1009   -0.6615    6.4134 O.2     1  LIG1       -0.2512
      5 O          -5.3482   -2.4248    3.3348 O.2     1  LIG1       -0.2966
      6 O          -6.8632    2.3146    0.4060 O.3     1  LIG1       -0.4572
      7 O          -4.9928    3.2439   -0.4438 O.2     1  LIG1       -0.2512
      8 O          -6.2001    2.8333    3.9866 O.3     1  LIG1       -0.4541
      9 O          -4.4035    4.0258    3.2972 O.2     1  LIG1       -0.2511
     10 C          -7.1096    4.3849    2.2676 C.3     1  LIG1       -0.0029
     11 H          -6.2547    4.8378    2.2057 H       1  LIG1        0.0309
     12 H          -7.5574    4.4343    1.4085 H       1  LIG1        0.0309
     13 C          -7.9746    4.9900    3.3743 C.3     1  LIG1       -0.0025
     14 H          -7.3953    5.1829    4.1409 H       1  LIG1        0.0335
     15 C          -8.9255    3.8491    3.7719 C.3     1  LIG1        0.1129
     16 H          -9.8392    4.0438    3.4743 H       1  LIG1        0.0741
     17 C          -8.3961    2.5635    3.0907 C.3     1  LIG1        0.0436
     18 H          -8.8993    2.4319    2.2598 H       1  LIG1        0.0380
     19 C          -8.5041    1.3103    3.8998 C.3     1  LIG1       -0.0177
     20 H          -8.1785    1.3433    4.7702 H       1  LIG1        0.0315
     21 C          -9.0178    0.1582    3.4992 C.3     1  LIG1        0.0180
     22 C          -8.6687   -1.1354    4.1997 C.3     1  LIG1        0.1159
     23 H          -9.4868   -1.6606    4.3229 H       1  LIG1        0.0744
     24 C          -7.6538   -1.9752    3.4008 C.3     1  LIG1        0.0441
     25 H          -7.6691   -2.8716    3.7712 H       1  LIG1        0.0378
     26 H          -7.9890   -2.0411    2.4927 H       1  LIG1        0.0378
     27 C          -6.1817   -1.5449    3.3115 C.2     1  LIG1        0.1440
     28 C          -3.6874    0.1110    4.5617 C.2     1  LIG1       -0.0789
     29 C          -4.3155    0.1624    3.3832 C.2     1  LIG1       -0.0748
     30 H          -3.8002    0.3560    2.6339 H       1  LIG1        0.0578
     31 C          -5.7833   -0.0666    3.1679 C.3     1  LIG1        0.0420
     32 H          -6.2560    0.4267    3.8707 H       1  LIG1        0.0424
     33 C          -6.2981    0.4789    1.8055 C.3     1  LIG1        0.0101
     34 H          -7.2446    0.2339    1.7353 H       1  LIG1        0.0345
     35 C          -6.2153    2.0210    1.6702 C.3     1  LIG1        0.1463
     36 H          -5.2733    2.2858    1.6141 H       1  LIG1        0.0777
     37 C          -6.9293    2.9191    2.7139 C.3     1  LIG1        0.1570
     38 C          -8.6844    6.2754    2.9881 C.3     1  LIG1       -0.0589
     39 H          -9.2565    6.1102    2.2353 H       1  LIG1        0.0234
     40 H          -8.0338    6.9419    2.7558 H       1  LIG1        0.0234
     41 H          -9.2102    6.5850    3.7286 H       1  LIG1        0.0234
     42 C          -9.8692   -0.0333    2.2644 C.3     1  LIG1       -0.0553
     43 H         -10.1764    0.8207    1.9522 H       1  LIG1        0.0236
     44 H         -10.6235   -0.5867    2.4783 H       1  LIG1        0.0236
     45 H          -9.3466   -0.4557    1.5783 H       1  LIG1        0.0236
     46 C          -4.3721   -0.2637    5.8403 C.3     1  LIG1       -0.0440
     47 H          -5.3228   -0.1936    5.7266 H       1  LIG1        0.0274
     48 H          -4.0890    0.3286    6.5405 H       1  LIG1        0.0274
     49 H          -4.1437   -1.1668    6.0732 H       1  LIG1        0.0274
     50 C          -2.2081    0.3762    4.6811 C.3     1  LIG1       -0.0440
     51 H          -1.7736   -0.3959    5.0512 H       1  LIG1        0.0274
     52 H          -2.0640    1.1310    5.2560 H       1  LIG1        0.0274
     53 H          -1.8454    0.5615    3.8119 H       1  LIG1        0.0274
     54 C          -5.5726   -0.1777    0.6248 C.3     1  LIG1       -0.0580
     55 H          -6.0676   -0.0219   -0.1826 H       1  LIG1        0.0234
     56 H          -5.5005   -1.1227    0.7788 H       1  LIG1        0.0234
     57 H          -4.6937    0.1998    0.5391 H       1  LIG1        0.0234
     58 C         -10.0002    3.3401    5.8450 C.2     1  LIG1        0.3395
     59 C          -9.7559    3.1768    7.3082 C.ar    1  LIG1        0.0590
     60 C          -8.6100    3.6742    7.9182 C.ar    1  LIG1       -0.0478
     61 H          -7.9544    4.0855    7.4029 H       1  LIG1        0.0626
     62 C          -8.4380    3.5603    9.2905 C.ar    1  LIG1       -0.0610
     63 H          -7.6814    3.9156    9.6989 H       1  LIG1        0.0618
     64 C          -9.4068    2.9121   10.0516 C.ar    1  LIG1       -0.0617
     65 H          -9.2900    2.8227   10.9700 H       1  LIG1        0.0618
     66 C         -10.5423    2.3972    9.4515 C.ar    1  LIG1       -0.0610
     67 H         -11.1862    1.9665    9.9653 H       1  LIG1        0.0618
     68 C         -10.7184    2.5276    8.0757 C.ar    1  LIG1       -0.0478
     69 H         -11.4802    2.1803    7.6702 H       1  LIG1        0.0626
     70 C          -8.9140   -0.6538    6.5271 C.2     1  LIG1        0.3042
     71 C          -8.1528   -0.3609    7.7827 C.3     1  LIG1        0.0332
     72 H          -7.7121   -1.1596    8.0834 H       1  LIG1        0.0342
     73 H          -8.7590   -0.0555    8.4612 H       1  LIG1        0.0342
     74 H          -7.4977    0.3191    7.6089 H       1  LIG1        0.0342
     75 C          -6.1608    2.9829   -0.5351 C.2     1  LIG1        0.3043
     76 C          -7.0614    3.3410   -1.6769 C.3     1  LIG1        0.0332
     77 H          -7.3508    2.5393   -2.1193 H       1  LIG1        0.0342
     78 H          -6.5856    3.8956   -2.2987 H       1  LIG1        0.0342
     79 H          -7.8267    3.8162   -1.3443 H       1  LIG1        0.0342
     80 C          -5.0043    3.4424    4.1577 C.2     1  LIG1        0.3046
     81 C          -4.5304    3.3105    5.5764 C.3     1  LIG1        0.0333
     82 H          -4.5851    4.1636    6.0130 H       1  LIG1        0.0342
     83 H          -3.6196    3.0059    5.5826 H       1  LIG1        0.0342
     84 H          -5.0823    2.6771    6.0409 H       1  LIG1        0.0342
     85 CL         -9.3108   -2.8319   -0.2450 Cl      2  LIG2       -0.0870
     86 CL         -9.7303   -0.4005   -1.7630 Cl      2  LIG2       -0.0870
     87 CL        -11.9833   -1.9213   -0.8085 Cl      2  LIG2       -0.0870
     88 C         -10.3368   -2.0099   -1.4178 C.3     2  LIG2        0.1805
     89 H         -10.3381   -2.5284   -2.2495 H       2  LIG2        0.0806
@<TRIPOS>BOND
     1    78    76    1
     2    89    88    1
     3    77    76    1
     4    86    88    1
     5    76    79    1
     6    76    75    1
     7    88    87    1
     8    88    85    1
     9    75     7    2
    10    75     6    1
    11    55    54    1
    12     6    35    1
    13    57    54    1
    14    54    56    1
    15    54    33    1
    16    12    10    1
    17    45    42    1
    18    36    35    1
    19    35    33    1
    20    35    37    1
    21    34    33    1
    22    33    31    1
    23    43    42    1
    24    11    10    1
    25    39    38    1
    26    18    17    1
    27    42    44    1
    28    42    21    1
    29    10    37    1
    30    10    13    1
    31    26    24    1
    32    30    29    1
    33    37    17    1
    34    37     8    1
    35    40    38    1
    36    38    13    1
    37    38    41    1
    38    17    15    1
    39    17    19    1
    40    31    27    1
    41    31    29    1
    42    31    32    1
    43     9    80    2
    44    27     5    2
    45    27    24    1
    46    13    15    1
    47    13    14    1
    48    29    28    2
    49    24    25    1
    50    24    22    1
    51    16    15    1
    52    21    19    1
    53    21    22    1
    54    15     1    1
    55    53    50    1
    56    19    20    1
    57     8    80    1
    58    80    81    1
    59    22    23    1
    60    22     3    1
    61    28    50    1
    62    28    46    1
    63    50    51    1
    64    50    52    1
    65     1    58    1
    66     2    58    2
    67     3    70    1
    68    81    83    1
    69    81    82    1
    70    81    84    1
    71    47    46    1
    72    46    49    1
    73    46    48    1
    74    58    59    1
    75     4    70    2
    76    70    71    1
    77    59    60   ar
    78    59    68   ar
    79    61    60    1
    80    74    71    1
    81    69    68    1
    82    71    72    1
    83    71    73    1
    84    60    62   ar
    85    68    66   ar
    86    62    63    1
    87    62    64   ar
    88    66    67    1
    89    66    64   ar
    90    64    65    1
