@<TRIPOS>MOLECULE
C22 H24 N2 O7 S
 56 58 0 0 0
SMALL
GASTEIGER

@<TRIPOS>ATOM
      1 S           5.0544    6.2644    5.6397 S.O2    1  LIG1        0.0797
      2 O           5.4044    7.5717    6.0873 O.2     1  LIG1       -0.1496
      3 O           5.7549    5.1268    6.1047 O.2     1  LIG1       -0.1496
      4 O           6.2670    7.0687   -0.8032 O.2     1  LIG1       -0.1261
      5 O           4.9633    5.3461   -0.9210 O.2     1  LIG1       -0.1261
      6 O           3.1882    3.8098    5.5283 O.2     1  LIG1       -0.2245
      7 O           1.5771    5.0137    6.5290 O.3     1  LIG1       -0.4398
      8 O           3.5342    5.6522   14.7498 O.3     1  LIG1       -0.4951
      9 N           3.4692    6.0783    6.0361 N.am    1  LIG1       -0.1299
     10 N           5.5600    6.2089   -0.2949 N.pl3   1  LIG1        0.0564
     11 C           5.1378    6.2586    3.8632 C.ar    1  LIG1        0.1090
     12 C           4.9459    5.0634    3.1964 C.ar    1  LIG1       -0.0329
     13 H           4.7314    4.2709    3.6757 H       1  LIG1        0.0638
     14 C           5.0713    5.0430    1.8090 C.ar    1  LIG1       -0.0296
     15 H           4.9248    4.2445    1.3173 H       1  LIG1        0.0641
     16 C           5.4157    6.2177    1.1716 C.ar    1  LIG1        0.1263
     17 C           5.6302    7.4031    1.8381 C.ar    1  LIG1       -0.0296
     18 H           5.8848    8.1859    1.3638 H       1  LIG1        0.0641
     19 C           5.4663    7.4294    3.2171 C.ar    1  LIG1       -0.0329
     20 H           5.5789    8.2376    3.7048 H       1  LIG1        0.0638
     21 C           2.7894    4.8334    5.9875 C.2     1  LIG1        0.4233
     22 C           1.1398    8.9921    5.3489 C.3     1  LIG1       -0.0608
     23 H           0.8369    9.3938    4.5074 H       1  LIG1        0.0233
     24 H           1.6224    9.6628    5.8770 H       1  LIG1        0.0233
     25 H           0.3656    8.6733    5.8567 H       1  LIG1        0.0233
     26 C           2.0515    7.8398    5.0526 C.3     1  LIG1       -0.0224
     27 H           2.8589    8.2112    4.5946 H       1  LIG1        0.0315
     28 C           1.3815    6.8640    4.0744 C.3     1  LIG1       -0.0608
     29 H           1.1534    7.3358    3.2453 H       1  LIG1        0.0233
     30 H           0.5657    6.5033    4.4812 H       1  LIG1        0.0233
     31 H           1.9978    6.1289    3.8734 H       1  LIG1        0.0233
     32 C           2.5311    7.1681    6.3458 C.3     1  LIG1        0.0951
     33 H           2.9707    7.8408    6.9413 H       1  LIG1        0.0563
     34 C           1.4993    6.3454    7.1452 C.3     1  LIG1        0.1440
     35 H           0.5816    6.7314    7.0489 H       1  LIG1        0.0800
     36 C           1.8702    6.1943    8.5913 C.2     1  LIG1       -0.0386
     37 H           2.6482    5.6795    8.7704 H       1  LIG1        0.0612
     38 C           1.2478    6.6895    9.6521 C.2     1  LIG1       -0.0437
     39 C          -0.0234    7.4840    9.5754 C.3     1  LIG1       -0.0393
     40 H          -0.3407    7.5035    8.6483 H       1  LIG1        0.0278
     41 H           0.1443    8.3994    9.8842 H       1  LIG1        0.0278
     42 H          -0.7040    7.0677   10.1459 H       1  LIG1        0.0278
     43 C           1.8317    6.4614   11.0142 C.ar    1  LIG1       -0.0221
     44 C           1.0212    6.3424   12.1408 C.ar    1  LIG1       -0.0509
     45 H           0.0808    6.4380   12.0448 H       1  LIG1        0.0625
     46 C           1.5484    6.0880   13.4066 C.ar    1  LIG1       -0.0194
     47 H           0.9721    6.0139   14.1589 H       1  LIG1        0.0654
     48 C           2.9126    5.9437   13.5628 C.ar    1  LIG1        0.1201
     49 C           2.7063    5.4465   15.8932 C.3     1  LIG1        0.0788
     50 H           2.1799    6.2557   16.0636 H       1  LIG1        0.0660
     51 H           3.2683    5.2525   16.6714 H       1  LIG1        0.0660
     52 H           2.1028    4.6920   15.7292 H       1  LIG1        0.0660
     53 C           3.7479    6.0851   12.4560 C.ar    1  LIG1       -0.0194
     54 H           4.6891    6.0090   12.5595 H       1  LIG1        0.0654
     55 C           3.2109    6.3356   11.2062 C.ar    1  LIG1       -0.0509
     56 H           3.7933    6.4234   10.4600 H       1  LIG1        0.0625
@<TRIPOS>BOND
     1     5    10    2
     2     4    10    2
     3    10    16    1
     4    16    14   ar
     5    16    17   ar
     6    15    14    1
     7    18    17    1
     8    14    12   ar
     9    17    19   ar
    10    12    13    1
    11    12    11   ar
    12    19    20    1
    13    19    11   ar
    14    29    28    1
    15    11     1    1
    16    31    28    1
    17    28    30    1
    18    28    26    1
    19    23    22    1
    20    27    26    1
    21    26    22    1
    22    26    32    1
    23    22    25    1
    24    22    24    1
    25     6    21    2
    26     1     9    1
    27     1     2    2
    28     1     3    2
    29    21     9   am
    30    21     7    1
    31     9    32    1
    32    32    33    1
    33    32    34    1
    34     7    34    1
    35    35    34    1
    36    34    36    1
    37    36    37    1
    38    36    38    2
    39    40    39    1
    40    39    38    1
    41    39    41    1
    42    39    42    1
    43    38    43    1
    44    56    55    1
    45    43    55   ar
    46    43    44   ar
    47    55    53   ar
    48    45    44    1
    49    44    46   ar
    50    53    54    1
    51    53    48   ar
    52    46    48   ar
    53    46    47    1
    54    48     8    1
    55     8    49    1
    56    52    49    1
    57    49    50    1
    58    49    51    1
