@<TRIPOS>MOLECULE
HQT52a
 84 87 0 0 0
SMALL
GASTEIGER

@<TRIPOS>ATOM
      1 O           5.6476    5.4903    2.8111 O.3     1  LIG1       -0.4536
      2 O           5.8420    3.2094    7.4559 O.3     1  LIG1       -0.4573
      3 O           4.8324    7.5052    3.4657 O.2     1  LIG1       -0.2456
      4 O           6.3070    1.5906    3.5845 O.3     1  LIG1       -0.4639
      5 O           8.2228    2.2103    2.5584 O.2     1  LIG1       -0.2512
      6 O           2.7156    3.8406    5.1613 O.3     1  LIG1       -0.3633
      7 O           7.1148    1.4148    7.7942 O.2     1  LIG1       -0.2512
      8 O           6.9097    3.8415    4.8666 O.3     1  LIG1       -0.4569
      9 O           6.9974    5.8956    5.7616 O.2     1  LIG1       -0.2512
     10 O           2.2864    0.8310    5.0384 O.3     1  LIG1       -0.3884
     11 H           2.1999    0.4536    5.7613 H       1  LIG1        0.2099
     12 O           4.0951    4.1947    0.8894 O.3     1  LIG1       -0.4578
     13 O           4.4389    6.1810   -0.1205 O.2     1  LIG1       -0.2512
     14 C          10.2582   10.7964    0.3268 C.ar    1  LIG1       -0.0617
     15 H          10.9256   11.2747   -0.1113 H       1  LIG1        0.0618
     16 C          10.3169    9.4048    0.3562 C.ar    1  LIG1       -0.0612
     17 H          11.0175    8.9546   -0.0577 H       1  LIG1        0.0618
     18 C           9.3188    8.6968    1.0104 C.ar    1  LIG1       -0.0546
     19 H           9.3533    7.7683    1.0383 H       1  LIG1        0.0623
     20 C           8.2627    9.3695    1.6265 C.ar    1  LIG1       -0.0248
     21 C           7.1661    8.6695    2.3012 C.2     1  LIG1       -0.0478
     22 H           6.5761    9.2004    2.7853 H       1  LIG1        0.0626
     23 C           6.9180    7.3618    2.3016 C.2     1  LIG1        0.0231
     24 H           7.5188    6.7763    1.9011 H       1  LIG1        0.0689
     25 C           5.6944    6.8375    2.9333 C.2     1  LIG1        0.3323
     26 C           4.4019    4.8536    3.2089 C.3     1  LIG1        0.1550
     27 H           3.9982    5.4085    3.9086 H       1  LIG1        0.0781
     28 C           4.7101    3.4712    3.8326 C.3     1  LIG1        0.1170
     29 C           5.4889    3.7278    5.1566 C.3     1  LIG1        0.1551
     30 H           5.1844    4.5818    5.5287 H       1  LIG1        0.0781
     31 C           5.3161    2.6522    6.2311 C.3     1  LIG1        0.1484
     32 H           5.8516    1.8692    5.9841 H       1  LIG1        0.0776
     33 C           6.7212    2.4877    8.1492 C.2     1  LIG1        0.3043
     34 C           7.1138    3.1909    9.4053 C.3     1  LIG1        0.0332
     35 H           6.5461    2.9023   10.1240 H       1  LIG1        0.0342
     36 H           7.0203    4.1383    9.2844 H       1  LIG1        0.0342
     37 H           8.0269    2.9831    9.6158 H       1  LIG1        0.0342
     38 C           5.5550    2.6085    2.8585 C.3     1  LIG1        0.1079
     39 H           4.9692    2.1801    2.2150 H       1  LIG1        0.0706
     40 H           6.1701    3.1792    2.3719 H       1  LIG1        0.0706
     41 C           7.6522    1.5800    3.4087 C.2     1  LIG1        0.3040
     42 C           8.3269    0.6995    4.4107 C.3     1  LIG1        0.0332
     43 H           9.2514    0.5949    4.1732 H       1  LIG1        0.0342
     44 H           7.8999   -0.1597    4.4208 H       1  LIG1        0.0342
     45 H           8.2639    1.0991    5.2814 H       1  LIG1        0.0342
     46 C           3.2992    2.8874    4.2266 C.3     1  LIG1        0.1148
     47 C           2.8430    3.3880    6.5424 C.3     1  LIG1        0.0736
     48 C           3.8495    2.2179    6.4044 C.3     1  LIG1        0.0569
     49 H           3.7501    1.5705    7.1334 H       1  LIG1        0.0392
     50 C           7.5260    4.9914    5.1677 C.2     1  LIG1        0.3043
     51 C           8.9198    5.0156    4.6230 C.3     1  LIG1        0.0332
     52 H           9.3553    5.8278    4.8928 H       1  LIG1        0.0342
     53 H           8.8895    4.9731    3.6639 H       1  LIG1        0.0342
     54 H           9.4095    4.2626    4.9610 H       1  LIG1        0.0342
     55 C           3.4800    1.5981    5.0452 C.3     1  LIG1        0.0942
     56 H           4.2280    1.0713    4.6940 H       1  LIG1        0.0627
     57 C           3.2646    4.5765    7.4016 C.3     1  LIG1       -0.0356
     58 H           4.1342    4.8771    7.1268 H       1  LIG1        0.0257
     59 H           3.2951    4.3102    8.3234 H       1  LIG1        0.0257
     60 H           2.6311    5.2894    7.2949 H       1  LIG1        0.0257
     61 C           1.4611    2.9366    7.0518 C.3     1  LIG1       -0.0356
     62 H           0.8743    3.6956    7.0986 H       1  LIG1        0.0257
     63 H           1.5527    2.5491    7.9249 H       1  LIG1        0.0257
     64 H           1.0946    2.2860    6.4489 H       1  LIG1        0.0257
     65 C           2.2917    2.7885    3.0629 C.3     1  LIG1       -0.0079
     66 H           1.4238    2.6131    3.4831 H       1  LIG1        0.0328
     67 C           2.1445    4.1592    2.3752 C.3     1  LIG1       -0.0068
     68 H           1.6300    4.0399    1.5617 H       1  LIG1        0.0306
     69 H           1.6353    4.7419    2.9595 H       1  LIG1        0.0306
     70 C           3.4519    4.8563    2.0201 C.3     1  LIG1        0.1409
     71 H           3.2577    5.7846    1.7735 H       1  LIG1        0.0772
     72 C           4.5763    4.9925   -0.0892 C.2     1  LIG1        0.3043
     73 C           5.3175    4.1872   -1.1075 C.3     1  LIG1        0.0332
     74 H           5.0607    4.4720   -1.9883 H       1  LIG1        0.0342
     75 H           5.1048    3.2580   -0.9974 H       1  LIG1        0.0342
     76 H           6.2614    4.3162   -0.9926 H       1  LIG1        0.0342
     77 C           2.4935    1.6532    2.0553 C.3     1  LIG1       -0.0596
     78 H           1.6767    1.5048    1.5732 H       1  LIG1        0.0233
     79 H           2.7405    0.8519    2.5217 H       1  LIG1        0.0233
     80 H           3.1896    1.8930    1.4392 H       1  LIG1        0.0233
     81 C           8.2277   10.7624    1.5730 C.ar    1  LIG1       -0.0546
     82 H           7.5234   11.2207    1.9716 H       1  LIG1        0.0623
     83 C           9.2296   11.4704    0.9334 C.ar    1  LIG1       -0.0612
     84 H           9.2053   12.3999    0.9163 H       1  LIG1        0.0618
@<TRIPOS>BOND
     1    74    73    1
     2    73    75    1
     3    73    76    1
     4    73    72    1
     5    13    72    2
     6    15    14    1
     7    72    12    1
     8    17    16    1
     9    14    16   ar
    10    14    83   ar
    11    16    18   ar
    12    12    70    1
    13    84    83    1
    14    83    81   ar
    15    18    19    1
    16    18    20   ar
    17    80    77    1
    18    68    67    1
    19    81    20   ar
    20    81    82    1
    21    78    77    1
    22    20    21    1
    23    71    70    1
    24    24    23    1
    25    70    67    1
    26    70    26    1
    27    77    79    1
    28    77    65    1
    29    39    38    1
    30    21    23    2
    31    21    22    1
    32    23    25    1
    33    40    38    1
    34    67    69    1
    35    67    65    1
    36     5    41    2
    37     1    25    1
    38     1    26    1
    39    38     4    1
    40    38    28    1
    41    25     3    2
    42    65    66    1
    43    65    46    1
    44    26    28    1
    45    26    27    1
    46    41     4    1
    47    41    42    1
    48    53    51    1
    49    28    46    1
    50    28    29    1
    51    43    42    1
    52    46    55    1
    53    46     6    1
    54    42    44    1
    55    42    45    1
    56    51    52    1
    57    51    54    1
    58    51    50    1
    59    56    55    1
    60     8    29    1
    61     8    50    1
    62    10    55    1
    63    10    11    1
    64    55    48    1
    65    29    30    1
    66    29    31    1
    67     6    47    1
    68    50     9    2
    69    32    31    1
    70    31    48    1
    71    31     2    1
    72    48    47    1
    73    48    49    1
    74    64    61    1
    75    47    61    1
    76    47    57    1
    77    61    62    1
    78    61    63    1
    79    58    57    1
    80    60    57    1
    81    57    59    1
    82     2    33    1
    83     7    33    2
    84    33    34    1
    85    36    34    1
    86    34    37    1
    87    34    35    1
