@<TRIPOS>MOLECULE
1553999.cif
 34 35 0 0 0
SMALL
GASTEIGER

@<TRIPOS>ATOM
      1 O           2.2443   -7.3574    3.2006 O.3     1  LIG1       -0.4951
      2 C           1.6511    1.7473    1.2044 C.1     1  LIG1       -0.0525
      3 C           1.8348   -3.3336    2.3127 C.ar    1  LIG1        0.0261
      4 C           1.6565    0.5705    1.4510 C.1     1  LIG1       -0.0092
      5 C           1.6861   -0.7699    1.7321 C.1     1  LIG1       -0.0092
      6 O           1.8039    7.1773   -0.0184 O.3     1  LIG1       -0.4951
      7 C           2.0623   -6.0310    2.9693 C.ar    1  LIG1        0.1202
      8 C           1.7464   -1.9437    1.9919 C.1     1  LIG1       -0.0525
      9 C           1.6512    3.1418    0.8772 C.ar    1  LIG1        0.0261
     10 C           1.3437   -3.8185    3.5147 C.ar    1  LIG1       -0.0428
     11 H           0.9326   -3.2327    4.1081 H       1  LIG1        0.0631
     12 C           2.4264   -4.2401    1.4278 C.ar    1  LIG1       -0.0428
     13 H           2.7542   -3.9378    0.6111 H       1  LIG1        0.0631
     14 C           2.5289   -5.5642    1.7477 C.ar    1  LIG1       -0.0188
     15 H           2.9137   -6.1566    1.1430 H       1  LIG1        0.0654
     16 C           1.4519   -5.1527    3.8514 C.ar    1  LIG1       -0.0188
     17 H           1.1180   -5.4593    4.6626 H       1  LIG1        0.0654
     18 C           1.7007    5.8437    0.2169 C.ar    1  LIG1        0.1202
     19 C           2.1961    4.0818    1.7564 C.ar    1  LIG1       -0.0428
     20 H           2.5436    3.8030    2.5727 H       1  LIG1        0.0631
     21 C           1.1288    3.5907   -0.3170 C.ar    1  LIG1       -0.0428
     22 H           0.7598    2.9772   -0.9104 H       1  LIG1        0.0631
     23 C           2.2199    5.4042    1.4258 C.ar    1  LIG1       -0.0188
     24 H           2.5894    6.0187    2.0182 H       1  LIG1        0.0654
     25 C           1.1402    4.9277   -0.6520 C.ar    1  LIG1       -0.0188
     26 H           0.7729    5.2117   -1.4574 H       1  LIG1        0.0654
     27 C           1.8914   -7.8671    4.4863 C.3     1  LIG1        0.0788
     28 H           2.3497   -7.3679    5.1656 H       1  LIG1        0.0660
     29 H           2.1425   -8.7923    4.5444 H       1  LIG1        0.0660
     30 H           0.9430   -7.7847    4.6136 H       1  LIG1        0.0660
     31 C           1.3865    7.6786   -1.2857 C.3     1  LIG1        0.0788
     32 H           1.8783    7.2378   -1.9817 H       1  LIG1        0.0660
     33 H           1.5528    8.6230   -1.3266 H       1  LIG1        0.0660
     34 H           0.4485    7.5136   -1.4020 H       1  LIG1        0.0660
@<TRIPOS>BOND
     1    32    31    1
     2    26    25    1
     3    34    31    1
     4    33    31    1
     5    31     6    1
     6    22    21    1
     7    25    21   ar
     8    25    18   ar
     9    21     9   ar
    10     6    18    1
    11    18    23   ar
    12    13    12    1
    13     9     2    1
    14     9    19   ar
    15    15    14    1
    16     2     4    3
    17    23    19   ar
    18    23    24    1
    19    12    14   ar
    20    12     3   ar
    21     4     5    1
    22     5     8    3
    23    14     7   ar
    24    19    20    1
    25     8     3    1
    26     3    10   ar
    27     7     1    1
    28     7    16   ar
    29     1    27    1
    30    10    16   ar
    31    10    11    1
    32    16    17    1
    33    27    29    1
    34    27    30    1
    35    27    28    1
