@<TRIPOS>MOLECULE
1553207.cif
 72 77 0 0 0
SMALL
GASTEIGER

@<TRIPOS>ATOM
      1 C           5.7915    0.8642   22.5758 C.2     1  LIG1        0.3167
      2 C           5.0991    2.0498   21.9478 C.3     1  LIG1        0.0715
      3 H           4.9356    2.7172   22.6756 H       1  LIG1        0.0426
      4 C           6.0283    2.7263   20.9059 C.3     1  LIG1        0.0237
      5 H           6.9470    2.3386   20.9813 H       1  LIG1        0.0373
      6 C           5.3943    2.2904   19.5508 C.3     1  LIG1        0.1718
      7 C           3.8933    2.3859   19.8243 C.3     1  LIG1       -0.0191
      8 H           3.3781    1.8607   19.1607 H       1  LIG1        0.0287
      9 H           3.5869    3.3266   19.7974 H       1  LIG1        0.0287
     10 C           3.7367    1.7905   21.2478 C.3     1  LIG1       -0.0041
     11 H           3.0138    2.2798   21.7353 H       1  LIG1        0.0353
     12 C           3.3924    0.3418   21.1758 C.2     1  LIG1       -0.0370
     13 H           2.6173    0.0952   20.6848 H       1  LIG1        0.0612
     14 C           4.0891   -0.6244   21.7473 C.2     1  LIG1        0.1351
     15 C           6.1079    4.2428   21.0420 C.ar    1  LIG1       -0.0418
     16 C           5.1060    5.0349   21.5783 C.ar    1  LIG1       -0.0569
     17 H           4.3216    4.6245   21.9215 H       1  LIG1        0.0621
     18 C           5.2259    6.4293   21.6238 C.ar    1  LIG1       -0.0431
     19 H           4.5304    6.9630   21.9882 H       1  LIG1        0.0632
     20 C           6.3758    7.0131   21.1273 C.ar    1  LIG1        0.0410
     21 C           7.4069    6.2582   20.6018 C.ar    1  LIG1       -0.0431
     22 H           8.1907    6.6755   20.2641 H       1  LIG1        0.0632
     23 C           7.2733    4.8764   20.5772 C.ar    1  LIG1       -0.0569
     24 H           7.9855    4.3471   20.2388 H       1  LIG1        0.0621
     25 C           5.8157    3.1564   18.3731 C.2     1  LIG1        0.3252
     26 C           7.7096    3.7496   17.0347 C.3     1  LIG1        0.1175
     27 H           8.6593    3.9320   17.2480 H       1  LIG1        0.0749
     28 H           7.2372    4.6164   16.9699 H       1  LIG1        0.0749
     29 C           7.6201    3.0300   15.7184 C.ar    1  LIG1       -0.0103
     30 C           6.4727    3.1248   14.9253 C.ar    1  LIG1       -0.0554
     31 H           5.7399    3.6546   15.2159 H       1  LIG1        0.0621
     32 C           6.3994    2.4515   13.7157 C.ar    1  LIG1       -0.0614
     33 H           5.6125    2.5107   13.1860 H       1  LIG1        0.0618
     34 C           7.4697    1.6951   13.2791 C.ar    1  LIG1       -0.0617
     35 H           7.4187    1.2432   12.4458 H       1  LIG1        0.0618
     36 C           8.6145    1.5920   14.0474 C.ar    1  LIG1       -0.0614
     37 H           9.3498    1.0731   13.7446 H       1  LIG1        0.0618
     38 C           8.6798    2.2560   15.2697 C.ar    1  LIG1       -0.0554
     39 H           9.4617    2.1786   15.8044 H       1  LIG1        0.0621
     40 C           5.8220    0.8463   19.2487 C.2     1  LIG1        0.3252
     41 C           5.5876   -0.9520   17.7147 C.3     1  LIG1        0.1175
     42 H           5.9941   -1.4538   18.4664 H       1  LIG1        0.0749
     43 H           6.2440   -0.9111   16.9745 H       1  LIG1        0.0749
     44 C           4.3383   -1.6368   17.2563 C.ar    1  LIG1       -0.0103
     45 C           3.8318   -2.7389   17.9218 C.ar    1  LIG1       -0.0554
     46 H           4.2687   -3.0614   18.7009 H       1  LIG1        0.0621
     47 C           2.6819   -3.3827   17.4572 C.ar    1  LIG1       -0.0614
     48 H           2.3451   -4.1446   17.9147 H       1  LIG1        0.0618
     49 C           2.0399   -2.9136   16.3379 C.ar    1  LIG1       -0.0617
     50 H           1.2636   -3.3570   16.0182 H       1  LIG1        0.0618
     51 C           2.5148   -1.8030   15.6768 C.ar    1  LIG1       -0.0614
     52 H           2.0548   -1.4700   14.9147 H       1  LIG1        0.0618
     53 C           3.6677   -1.1715   16.1255 C.ar    1  LIG1       -0.0554
     54 H           4.0021   -0.4151   15.6573 H       1  LIG1        0.0621
     55 C           3.8231   -2.0766   21.6448 C.ar    1  LIG1        0.0171
     56 C           4.8244   -3.0031   21.8935 C.ar    1  LIG1       -0.0511
     57 H           5.6834   -2.7091   22.1721 H       1  LIG1        0.0625
     58 C           4.5739   -4.3680   21.7360 C.ar    1  LIG1       -0.0611
     59 H           5.2638   -4.9991   21.9055 H       1  LIG1        0.0618
     60 C           3.3346   -4.8021   21.3370 C.ar    1  LIG1       -0.0617
     61 H           3.1742   -5.7300   21.2181 H       1  LIG1        0.0618
     62 C           2.3140   -3.8889   21.1066 C.ar    1  LIG1       -0.0611
     63 H           1.4532   -4.1952   20.8457 H       1  LIG1        0.0618
     64 C           2.5502   -2.5248   21.2572 C.ar    1  LIG1       -0.0511
     65 H           1.8522   -1.8992   21.0986 H       1  LIG1        0.0625
     66 CL          6.5235    8.7480   21.1452 Cl      1  LIG1       -0.0835
     67 O           6.8202    0.9759   23.1753 O.2     1  LIG1       -0.2501
     68 O           5.2365   -0.3758   22.5091 O.3     1  LIG1       -0.4253
     69 O           5.1035    3.9229   17.8000 O.2     1  LIG1       -0.2496
     70 O           7.1135    2.9460   18.1078 O.3     1  LIG1       -0.4591
     71 O           6.5939    0.2094   19.9213 O.2     1  LIG1       -0.2496
     72 O           5.2309    0.4068   18.1487 O.3     1  LIG1       -0.4591
@<TRIPOS>BOND
     1    35    34    1
     2    33    32    1
     3    34    32   ar
     4    34    36   ar
     5    32    30   ar
     6    37    36    1
     7    36    38   ar
     8    52    51    1
     9    30    31    1
    10    30    29   ar
    11    38    29   ar
    12    38    39    1
    13    54    53    1
    14    51    53   ar
    15    51    49   ar
    16    29    26    1
    17    50    49    1
    18    53    44   ar
    19    49    47   ar
    20    28    26    1
    21    43    41    1
    22    26    27    1
    23    26    70    1
    24    44    41    1
    25    44    45   ar
    26    47    48    1
    27    47    45   ar
    28    41    72    1
    29    41    42    1
    30    69    25    2
    31    45    46    1
    32    70    25    1
    33    72    40    1
    34    25     6    1
    35     8     7    1
    36    40     6    1
    37    40    71    2
    38     6     7    1
    39     6     4    1
    40     9     7    1
    41     7    10    1
    42    24    23    1
    43    22    21    1
    44    23    21   ar
    45    23    15   ar
    46    21    20   ar
    47    13    12    1
    48    63    62    1
    49     4     5    1
    50     4    15    1
    51     4     2    1
    52    15    16   ar
    53    65    64    1
    54    62    64   ar
    55    62    60   ar
    56    20    66    1
    57    20    18   ar
    58    12    10    1
    59    12    14    2
    60    61    60    1
    61    10    11    1
    62    10     2    1
    63    64    55   ar
    64    60    58   ar
    65    16    18   ar
    66    16    17    1
    67    18    19    1
    68    55    14    1
    69    55    56   ar
    70    58    56   ar
    71    58    59    1
    72    14    68    1
    73    56    57    1
    74     2     1    1
    75     2     3    1
    76    68     1    1
    77     1    67    2
