@<TRIPOS>MOLECULE
1553058.cif
 60 63 0 0 0
SMALL
GASTEIGER

@<TRIPOS>ATOM
      1 BR         -2.0617   14.3574   15.7623 Br      1  LIG1       -0.0503
      2 O           5.5820   14.2049   12.9896 O.2     1  LIG1       -0.2744
      3 O           4.9670    9.8539   12.7894 O.3     1  LIG1       -0.3867
      4 O           3.0629   10.0236   15.1710 O.2     1  LIG1       -0.2973
      5 O           1.7574   11.6167   10.3656 O.2     1  LIG1       -0.1314
      6 O           1.5452   13.7098   10.6572 O.2     1  LIG1       -0.1314
      7 O           5.2855   13.8506    9.8600 O.3     1  LIG1       -0.4646
      8 O           4.5884   12.1142    8.7011 O.2     1  LIG1       -0.2504
      9 N           7.5244   13.4410   12.0505 N.am    1  LIG1       -0.2844
     10 N           2.1142   12.6595   10.8473 N.pl3   1  LIG1        0.0269
     11 C           5.7287   11.9459   12.0154 C.3     1  LIG1        0.1177
     12 C           5.3325   11.1254   13.2961 C.3     1  LIG1        0.0921
     13 C           4.1113   11.8001   13.9900 C.3     1  LIG1        0.0559
     14 H           4.3674   12.7123   14.2428 H       1  LIG1        0.0412
     15 C           2.9086   11.8855   13.0414 C.3     1  LIG1        0.0242
     16 H           2.6690   10.9734   12.7757 H       1  LIG1        0.0379
     17 C           3.3103   12.6557   11.7810 C.3     1  LIG1        0.1318
     18 H           3.5422   13.5779   12.0209 H       1  LIG1        0.0609
     19 C           4.4899   11.9986   11.0724 C.3     1  LIG1        0.1045
     20 H           4.2306   11.0714   10.8916 H       1  LIG1        0.0451
     21 C           6.2364   13.3417   12.4159 C.2     1  LIG1        0.2315
     22 C           7.9632   12.3064   11.3566 C.ar    1  LIG1        0.0377
     23 C           9.2031   12.0614   10.7993 C.ar    1  LIG1       -0.0402
     24 H           9.8826   12.6947   10.8399 H       1  LIG1        0.0636
     25 C           9.3957   10.8478   10.1811 C.ar    1  LIG1       -0.0600
     26 H          10.2229   10.6555    9.8009 H       1  LIG1        0.0618
     27 C           8.3933    9.9143   10.1146 C.ar    1  LIG1       -0.0614
     28 H           8.5476    9.1001    9.6902 H       1  LIG1        0.0618
     29 C           7.1392   10.1756   10.6793 C.ar    1  LIG1       -0.0557
     30 H           6.4531    9.5499   10.6240 H       1  LIG1        0.0621
     31 C           6.9444   11.3742   11.3141 C.ar    1  LIG1       -0.0076
     32 C           6.5231   11.0186   14.2410 C.3     1  LIG1       -0.0341
     33 H           6.2922   10.4558   14.9846 H       1  LIG1        0.0258
     34 H           6.7573   11.8918   14.5621 H       1  LIG1        0.0258
     35 H           7.2694   10.6379   13.7722 H       1  LIG1        0.0258
     36 C           3.6922   11.0538   15.2467 C.2     1  LIG1        0.1368
     37 C           4.0620   11.6694   16.5643 C.3     1  LIG1       -0.0057
     38 H           3.5751   12.4886   16.6824 H       1  LIG1        0.0306
     39 H           5.0042   11.8516   16.5791 H       1  LIG1        0.0306
     40 H           3.8421   11.0613   17.2748 H       1  LIG1        0.0306
     41 C           1.6951   12.5175   13.7002 C.ar    1  LIG1       -0.0413
     42 C           1.7443   13.7676   14.3092 C.ar    1  LIG1       -0.0572
     43 H           2.5453   14.2413   14.3055 H       1  LIG1        0.0621
     44 C           0.6434   14.3204   14.9182 C.ar    1  LIG1       -0.0475
     45 H           0.6960   15.1522   15.3279 H       1  LIG1        0.0629
     46 C          -0.5384   13.6156   14.9053 C.ar    1  LIG1        0.0179
     47 C          -0.6259   12.3856   14.3295 C.ar    1  LIG1       -0.0475
     48 H          -1.4259   11.9119   14.3480 H       1  LIG1        0.0629
     49 C           0.4968   11.8479   13.7169 C.ar    1  LIG1       -0.0572
     50 H           0.4366   11.0149   13.3090 H       1  LIG1        0.0621
     51 C           4.7854   12.6444    9.7289 C.2     1  LIG1        0.3139
     52 C           5.5503   14.6006    8.6272 C.3     1  LIG1        0.0897
     53 H           5.0261   14.2463    7.8928 H       1  LIG1        0.0694
     54 H           5.3303   15.5379    8.7454 H       1  LIG1        0.0694
     55 C           6.9587   14.4373    8.3707 C.3     1  LIG1       -0.0306
     56 H           7.4631   14.8268    9.0886 H       1  LIG1        0.0262
     57 H           7.1863   14.8745    7.5458 H       1  LIG1        0.0262
     58 H           7.1666   13.5025    8.3043 H       1  LIG1        0.0262
     59 H           7.9337   14.1848   12.1612 H       1  LIG1        0.1548
     60 H           4.8915    9.3602   13.4714 H       1  LIG1        0.2102
@<TRIPOS>BOND
     1    57    55    1
     2    53    52    1
     3    58    55    1
     4    55    52    1
     5    55    56    1
     6    52    54    1
     7    52     7    1
     8     8    51    2
     9    28    27    1
    10    51     7    1
    11    51    19    1
    12    26    25    1
    13    27    25   ar
    14    27    29   ar
    15    25    23   ar
    16     5    10    2
    17    30    29    1
    18     6    10    2
    19    29    31   ar
    20    23    24    1
    21    23    22   ar
    22    10    17    1
    23    20    19    1
    24    19    17    1
    25    19    11    1
    26    31    22   ar
    27    31    11    1
    28    22     9    1
    29    17    18    1
    30    17    15    1
    31    11    21    1
    32    11    12    1
    33     9    59    1
    34     9    21   am
    35    21     2    2
    36    16    15    1
    37     3    12    1
    38     3    60    1
    39    15    41    1
    40    15    13    1
    41    12    13    1
    42    12    32    1
    43    50    49    1
    44    41    49   ar
    45    41    42   ar
    46    49    47   ar
    47    35    32    1
    48    13    14    1
    49    13    36    1
    50    32    34    1
    51    32    33    1
    52    43    42    1
    53    42    44   ar
    54    47    48    1
    55    47    46   ar
    56    46    44   ar
    57    46     1    1
    58    44    45    1
    59     4    36    2
    60    36    37    1
    61    37    39    1
    62    37    38    1
    63    37    40    1
