@<TRIPOS>MOLECULE
C36 H26
 62 67 0 0 0
SMALL
GASTEIGER

@<TRIPOS>ATOM
      1 C           6.6995    3.9144    2.9523 C.2     1  LIG1       -0.0019
      2 C           7.8513    3.9454    3.6503 C.2     1  LIG1       -0.0025
      3 C           6.4262    2.9781    1.8152 C.ar    1  LIG1       -0.0167
      4 C           5.6077    3.3839    0.7588 C.ar    1  LIG1       -0.0540
      5 H           5.2504    4.2642    0.7575 H       1  LIG1        0.0624
      6 C           5.3066    2.5255   -0.2880 C.ar    1  LIG1       -0.0612
      7 H           4.7523    2.8225   -1.0006 H       1  LIG1        0.0618
      8 C           5.8104    1.2369   -0.2989 C.ar    1  LIG1       -0.0617
      9 H           5.6049    0.6488   -1.0165 H       1  LIG1        0.0618
     10 C           6.6162    0.8098    0.7445 C.ar    1  LIG1       -0.0612
     11 H           6.9662   -0.0736    0.7394 H       1  LIG1        0.0618
     12 C           6.9138    1.6632    1.7935 C.ar    1  LIG1       -0.0540
     13 H           7.4559    1.3529    2.5088 H       1  LIG1        0.0624
     14 C           9.0773    3.1968    3.2471 C.ar    1  LIG1       -0.0167
     15 C           9.6399    3.3506    1.9834 C.ar    1  LIG1       -0.0540
     16 H           9.2298    3.9333    1.3549 H       1  LIG1        0.0624
     17 C          10.7889    2.6659    1.6318 C.ar    1  LIG1       -0.0612
     18 H          11.1621    2.7808    0.7655 H       1  LIG1        0.0618
     19 C          11.3961    1.8157    2.5346 C.ar    1  LIG1       -0.0617
     20 H          12.1792    1.3374    2.2885 H       1  LIG1        0.0618
     21 C          10.8563    1.6632    3.8047 C.ar    1  LIG1       -0.0612
     22 H          11.2717    1.0813    4.4304 H       1  LIG1        0.0618
     23 C           9.7167    2.3555    4.1582 C.ar    1  LIG1       -0.0540
     24 H           9.3619    2.2584    5.0346 H       1  LIG1        0.0624
     25 C           8.0166    4.7711    4.8834 C.ar    1  LIG1       -0.0167
     26 C           9.0187    5.7335    4.9347 C.ar    1  LIG1       -0.0540
     27 H           9.5669    5.8778    4.1726 H       1  LIG1        0.0624
     28 C           9.2301    6.4856    6.0809 C.ar    1  LIG1       -0.0612
     29 H           9.9084    7.1509    6.0977 H       1  LIG1        0.0618
     30 C           8.4459    6.2608    7.2040 C.ar    1  LIG1       -0.0617
     31 H           8.5937    6.7659    7.9955 H       1  LIG1        0.0618
     32 C           7.4511    5.3034    7.1721 C.ar    1  LIG1       -0.0612
     33 H           6.9174    5.1503    7.9432 H       1  LIG1        0.0618
     34 C           7.2274    4.5628    6.0175 C.ar    1  LIG1       -0.0540
     35 H           6.5350    3.9127    5.9989 H       1  LIG1        0.0624
     36 C           5.5596    4.8289    3.2902 C.ar    1  LIG1       -0.0090
     37 C           5.6304    6.2316    3.1710 C.ar    1  LIG1       -0.0101
     38 C           4.4859    6.9808    3.4465 C.ar    1  LIG1       -0.0534
     39 H           4.5193    7.9259    3.3515 H       1  LIG1        0.0624
     40 C           3.3089    6.3904    3.8517 C.ar    1  LIG1       -0.0611
     41 H           2.5476    6.9269    4.0409 H       1  LIG1        0.0618
     42 C           3.2367    5.0075    3.9823 C.ar    1  LIG1       -0.0611
     43 H           2.4302    4.5900    4.2624 H       1  LIG1        0.0618
     44 C           4.3576    4.2481    3.6971 C.ar    1  LIG1       -0.0534
     45 H           4.3075    3.3033    3.7808 H       1  LIG1        0.0624
     46 C           6.8723    6.9530    2.7835 C.ar    1  LIG1       -0.0167
     47 C           7.6301    6.5802    1.6400 C.ar    1  LIG1       -0.0534
     48 H           7.3355    5.8617    1.0937 H       1  LIG1        0.0624
     49 C           8.7812    7.2477    1.3189 C.ar    1  LIG1       -0.0535
     50 H           9.2763    6.9783    0.5542 H       1  LIG1        0.0624
     51 C           9.2504    8.3305    2.1004 C.ar    1  LIG1       -0.0178
     52 C           8.4951    8.7225    3.2333 C.ar    1  LIG1       -0.0173
     53 C           7.3055    8.0124    3.5409 C.ar    1  LIG1       -0.0463
     54 H           6.7933    8.2787    4.2953 H       1  LIG1        0.0630
     55 C          10.4407    9.0460    1.7960 C.ar    1  LIG1       -0.0540
     56 H          10.9573    8.7980    1.0392 H       1  LIG1        0.0624
     57 C          10.8478   10.0837    2.5787 C.ar    1  LIG1       -0.0612
     58 H          11.6360   10.5638    2.3521 H       1  LIG1        0.0618
     59 C          10.1107   10.4536    3.7230 C.ar    1  LIG1       -0.0612
     60 H          10.4127   11.1685    4.2703 H       1  LIG1        0.0618
     61 C           8.9639    9.7861    4.0463 C.ar    1  LIG1       -0.0540
     62 H           8.4765   10.0361    4.8223 H       1  LIG1        0.0624
@<TRIPOS>BOND
     1     9     8    1
     2     7     6    1
     3     8     6   ar
     4     8    10   ar
     5     6     4   ar
     6    50    49    1
     7    11    10    1
     8    10    12   ar
     9     5     4    1
    10     4     3   ar
    11    18    17    1
    12    56    55    1
    13    48    47    1
    14    49    47   ar
    15    49    51   ar
    16    16    15    1
    17    17    15   ar
    18    17    19   ar
    19    47    46   ar
    20    12     3   ar
    21    12    13    1
    22    55    51   ar
    23    55    57   ar
    24     3     1    1
    25    15    14   ar
    26    51    52   ar
    27    20    19    1
    28    58    57    1
    29    19    21   ar
    30    57    59   ar
    31    46    37    1
    32    46    53   ar
    33     1    36    1
    34     1     2    2
    35    37    36   ar
    36    37    38   ar
    37    52    53   ar
    38    52    61   ar
    39    14     2    1
    40    14    23   ar
    41    36    44   ar
    42    39    38    1
    43    38    40   ar
    44    53    54    1
    45     2    25    1
    46    44    45    1
    47    44    42   ar
    48    59    61   ar
    49    59    60    1
    50    21    23   ar
    51    21    22    1
    52    40    42   ar
    53    40    41    1
    54    42    43    1
    55    61    62    1
    56    23    24    1
    57    27    26    1
    58    25    26   ar
    59    25    34   ar
    60    26    28   ar
    61    35    34    1
    62    34    32   ar
    63    28    29    1
    64    28    30   ar
    65    32    30   ar
    66    32    33    1
    67    30    31    1
