@<TRIPOS>MOLECULE
C32 H30 N3 O2, C F3 O3 S
 75 78 0 0 0
SMALL
GASTEIGER

@<TRIPOS>ATOM
      1 S           6.9530    1.7651    1.3821 S.3     1  LIG1        0.2092
      2 F           5.8711    3.5324    3.0092 F       1  LIG1       -0.1486
      3 F           4.4608    2.4019    1.8681 F       1  LIG1       -0.1486
      4 F           5.4534    1.5205    3.5310 F       1  LIG1       -0.1486
      5 O           3.4413   -0.8921    4.5376 O.2     2  LIG2       -0.2737
      6 O           3.3829    4.3950    8.1854 O.3     2  LIG2       -0.4951
      7 O           6.8727    2.6911    0.2889 O.2     1  LIG1       -0.1362
      8 O           6.5546    0.4203    1.0827 O.2     1  LIG1       -0.1362
      9 O           8.1413    1.8950    2.1889 O.3     1  LIG1       -0.0397
     10 N           3.7261   -2.6430    1.7811 N.pl3   2  LIG2       -0.3027
     11 N           1.7656   -2.3246    2.7166 N.3     2  LIG2       -0.2580
     12 N           2.1422    0.9176    4.0065 N.am    2  LIG2       -0.2842
     13 H           1.5509    1.2051    3.4211 H       2  LIG2        0.1549
     14 C           2.2433   -0.9555    2.4725 C.3     2  LIG2        0.1056
     15 H           1.5594   -0.4067    1.9910 H       2  LIG2        0.0575
     16 C           2.6504   -3.2153    2.3205 C.3     2  LIG2        0.1559
     17 C           3.4945   -1.1944    1.6033 C.3     2  LIG2        0.0385
     18 H           3.3219   -0.9719    0.6550 H       2  LIG2        0.0485
     19 H           4.2650   -0.6642    1.9272 H       2  LIG2        0.0485
     20 C           2.6541   -0.3080    3.8031 C.2     2  LIG2        0.2361
     21 C           2.4659    1.7940    5.0782 C.ar    2  LIG2        0.0337
     22 C           2.3830    3.1529    4.8584 C.ar    2  LIG2       -0.0370
     23 H           2.1231    3.4737    4.0022 H       2  LIG2        0.0637
     24 C           2.6752    4.0630    5.8719 C.ar    2  LIG2       -0.0182
     25 H           2.6109    4.9971    5.7077 H       2  LIG2        0.0655
     26 C           3.0603    3.6004    7.1182 C.ar    2  LIG2        0.1202
     27 C           3.1510    2.2303    7.3416 C.ar    2  LIG2       -0.0182
     28 H           3.4243    1.9105    8.1928 H       2  LIG2        0.0655
     29 C           2.8458    1.3279    6.3356 C.ar    2  LIG2       -0.0370
     30 H           2.8958    0.3934    6.5018 H       2  LIG2        0.0637
     31 C           3.2952    5.8060    8.0024 C.3     2  LIG2        0.0788
     32 H           3.9106    6.0819    7.2915 H       2  LIG2        0.0660
     33 H           3.5358    6.2587    8.8376 H       2  LIG2        0.0660
     34 H           2.3788    6.0464    7.7523 H       2  LIG2        0.0660
     35 C           0.3715   -2.5877    3.0870 C.3     2  LIG2        0.0272
     36 H           0.2266   -3.5663    3.1328 H       2  LIG2        0.0477
     37 H          -0.2245   -2.2241    2.3851 H       2  LIG2        0.0477
     38 C           0.0071   -1.9696    4.4181 C.ar    2  LIG2       -0.0333
     39 C          -1.0149   -1.0366    4.4814 C.ar    2  LIG2       -0.0573
     40 H          -1.4582   -0.7697    3.6849 H       2  LIG2        0.0621
     41 C          -1.3959   -0.4880    5.6974 C.ar    2  LIG2       -0.0615
     42 H          -2.1084    0.1392    5.7352 H       2  LIG2        0.0618
     43 C          -0.7348   -0.8574    6.8558 C.ar    2  LIG2       -0.0617
     44 H          -0.9841   -0.4695    7.6871 H       2  LIG2        0.0618
     45 C           0.2846   -1.7871    6.8097 C.ar    2  LIG2       -0.0615
     46 H           0.7332   -2.0442    7.6074 H       2  LIG2        0.0618
     47 C           0.6501   -2.3425    5.5950 C.ar    2  LIG2       -0.0573
     48 H           1.3477   -2.9862    5.5642 H       2  LIG2        0.0621
     49 C           6.1015   -5.2047    4.4383 C.ar    2  LIG2       -0.0611
     50 H           6.1761   -5.0814    5.3773 H       2  LIG2        0.0618
     51 C           2.4599   -4.6766    2.4086 C.ar    2  LIG2       -0.0055
     52 C           2.4349   -5.3214    3.6424 C.ar    2  LIG2       -0.0551
     53 H           2.4957   -4.8200    4.4470 H       2  LIG2        0.0621
     54 C           2.3193   -6.7013    3.6876 C.ar    2  LIG2       -0.0614
     55 H           2.3183   -7.1512    4.5253 H       2  LIG2        0.0618
     56 C           2.2049   -7.4252    2.5135 C.ar    2  LIG2       -0.0617
     57 H           2.1361   -8.3714    2.5459 H       2  LIG2        0.0618
     58 C           2.1913   -6.7774    1.2943 C.ar    2  LIG2       -0.0614
     59 H           2.0835   -7.2787    0.4941 H       2  LIG2        0.0618
     60 C           2.3340   -5.4003    1.2301 C.ar    2  LIG2       -0.0551
     61 H           2.3449   -4.9572    0.3898 H       2  LIG2        0.0621
     62 C           4.9473   -3.2770    1.4057 C.2     2  LIG2        0.0315
     63 C           5.6632   -2.7962    0.3989 C.2     2  LIG2       -0.0769
     64 H           5.3636   -2.0289   -0.0739 H       2  LIG2        0.0553
     65 H           6.4770   -3.2196    0.1492 H       2  LIG2        0.0553
     66 C           5.4277   -4.3771    2.2777 C.ar    2  LIG2       -0.0045
     67 C           5.8749   -5.5595    1.7062 C.ar    2  LIG2       -0.0528
     68 H           5.7901   -5.6941    0.7694 H       2  LIG2        0.0624
     69 C           6.4450   -6.5459    2.4972 C.ar    2  LIG2       -0.0611
     70 H           6.7544   -7.3495    2.0967 H       2  LIG2        0.0618
     71 C           6.5677   -6.3721    3.8579 C.ar    2  LIG2       -0.0617
     72 H           6.9685   -7.0463    4.3934 H       2  LIG2        0.0618
     73 C           5.5253   -4.2161    3.6585 C.ar    2  LIG2       -0.0528
     74 H           5.1962   -3.4238    4.0660 H       2  LIG2        0.0624
     75 C           5.6239    2.3315    2.5019 C.3     1  LIG1        0.5487
@<TRIPOS>BOND
     1    64    63    1
     2    65    63    1
     3     7     1    2
     4    61    60    1
     5    63    62    2
     6    59    58    1
     7    18    17    1
     8    68    67    1
     9     8     1    2
    10    60    58   ar
    11    60    51   ar
    12    58    56   ar
    13     1     9    1
    14     1    75    1
    15    62    10    1
    16    62    66    1
    17    17    10    1
    18    17    19    1
    19    17    14    1
    20    67    66   ar
    21    67    69   ar
    22    10    16    1
    23     3    75    1
    24    15    14    1
    25    70    69    1
    26    66    73   ar
    27    16    51    1
    28    16    11    1
    29    37    35    1
    30    51    52   ar
    31    14    11    1
    32    14    20    1
    33    69    71   ar
    34    75     2    1
    35    75     4    1
    36    56    57    1
    37    56    54   ar
    38    11    35    1
    39    35    36    1
    40    35    38    1
    41    13    12    1
    42    52    54   ar
    43    52    53    1
    44    73    74    1
    45    73    49   ar
    46    40    39    1
    47    54    55    1
    48    20    12   am
    49    20     5    2
    50    71    72    1
    51    71    49   ar
    52    23    22    1
    53    12    21    1
    54    38    39   ar
    55    38    47   ar
    56    49    50    1
    57    39    41   ar
    58    22    21   ar
    59    22    24   ar
    60    21    29   ar
    61    48    47    1
    62    47    45   ar
    63    41    42    1
    64    41    43   ar
    65    25    24    1
    66    24    26   ar
    67    29    30    1
    68    29    27   ar
    69    45    43   ar
    70    45    46    1
    71    43    44    1
    72    26    27   ar
    73    26     6    1
    74    32    31    1
    75    27    28    1
    76    34    31    1
    77    31     6    1
    78    31    33    1
