@<TRIPOS>MOLECULE
()-(1S,11R,12S,14S)-11-Hydroxy-10,10-dimethyl-7,13,15-trioxa-8-azatetracyclo[9.3.1.01,8.012,14]pentadecan-9-one
 38 41 0 0 0
SMALL
GASTEIGER

@<TRIPOS>ATOM
      1 C           1.1333    2.6703    8.7221 C.2     1  LIG1        0.2517
      2 C           1.2696    3.3063   10.1226 C.3     1  LIG1        0.0997
      3 C           2.3144    2.5250   10.9525 C.3     1  LIG1        0.2126
      4 C           1.9146    1.0691   11.1195 C.3     1  LIG1        0.1442
      5 H           1.0120    0.8180   11.4678 H       1  LIG1        0.0678
      6 C           2.5228    0.3438   10.0105 C.3     1  LIG1        0.1382
      7 H           2.0494   -0.4178    9.5682 H       1  LIG1        0.0671
      8 C           3.2394    1.4165    9.1865 C.3     1  LIG1        0.1937
      9 C           4.5015    0.9869    8.4807 C.3     1  LIG1       -0.0019
     10 H           4.2496    0.3873    7.7345 H       1  LIG1        0.0311
     11 H           5.0459    0.4565    9.1147 H       1  LIG1        0.0311
     12 C           5.3758    2.1082    7.9207 C.3     1  LIG1       -0.0487
     13 H           6.1683    1.6969    7.4928 H       1  LIG1        0.0267
     14 H           5.7007    2.6541    8.6800 H       1  LIG1        0.0267
     15 C           4.7176    3.0493    6.9035 C.3     1  LIG1       -0.0508
     16 H           5.4173    3.6262    6.5075 H       1  LIG1        0.0266
     17 H           4.0820    3.6372    7.3820 H       1  LIG1        0.0266
     18 C           3.9656    2.3348    5.7644 C.3     1  LIG1       -0.0272
     19 H           4.1316    2.8284    4.9230 H       1  LIG1        0.0288
     20 H           4.3485    1.4285    5.6579 H       1  LIG1        0.0288
     21 C           2.4671    2.2012    5.9533 C.3     1  LIG1        0.0736
     22 H           2.0883    3.1005    6.1201 H       1  LIG1        0.0584
     23 H           2.0718    1.8620    5.1111 H       1  LIG1        0.0584
     24 C           1.7490    4.7535    9.9067 C.3     1  LIG1       -0.0463
     25 H           1.7693    5.2225   10.7665 H       1  LIG1        0.0241
     26 H           1.1341    5.2142    9.2978 H       1  LIG1        0.0241
     27 H           2.6484    4.7448    9.5183 H       1  LIG1        0.0241
     28 C          -0.0939    3.3108   10.8207 C.3     1  LIG1       -0.0463
     29 H          -0.4562    2.3996   10.8375 H       1  LIG1        0.0241
     30 H          -0.7082    3.8973   10.3330 H       1  LIG1        0.0241
     31 H           0.0095    3.6372   11.7394 H       1  LIG1        0.0241
     32 N           2.2229    1.9855    8.2648 N.am    1  LIG1       -0.1452
     33 O           0.1404    2.8684    8.0235 O.2     1  LIG1       -0.2726
     34 O           2.0675    1.3208    7.0403 O.3     1  LIG1       -0.2744
     35 O           3.5095    2.4323   10.1249 O.3     1  LIG1       -0.3164
     36 O           2.6160    3.2185   12.0992 O.3     1  LIG1       -0.3617
     37 H           2.9865    2.7030   12.6488 H       1  LIG1        0.2129
     38 O           3.0661    0.2137   11.3357 O.3     1  LIG1       -0.3579
@<TRIPOS>BOND
     1    19    18    1
     2    23    21    1
     3    20    18    1
     4    18    21    1
     5    18    15    1
     6    21    22    1
     7    21    34    1
     8    16    15    1
     9    15    17    1
    10    15    12    1
    11    34    32    1
    12    13    12    1
    13    10     9    1
    14    12     9    1
    15    12    14    1
    16    33     1    2
    17    32     1   am
    18    32     8    1
    19     9    11    1
    20     9     8    1
    21     1     2    1
    22     8     6    1
    23     8    35    1
    24    26    24    1
    25    27    24    1
    26     7     6    1
    27    24     2    1
    28    24    25    1
    29     6     4    1
    30     6    38    1
    31     2    28    1
    32     2     3    1
    33    35     3    1
    34    30    28    1
    35    28    29    1
    36    28    31    1
    37     3     4    1
    38     3    36    1
    39     4    38    1
    40     4     5    1
    41    36    37    1
