@<TRIPOS>MOLECULE
1553090.cif
 83 88 0 0 0
SMALL
GASTEIGER

@<TRIPOS>ATOM
      1 B           4.2936    7.3084    3.0472 B       1  LIG1        0.0000
      2 B           9.5812    1.4529    0.8559 B       2  LIG2        0.0000
      3 C           7.6147    7.0504    1.2870 C.2     1  LIG1        0.0000
      4 C          10.2581   -1.6956   -2.2818 C.ar    2  LIG2        0.0000
      5 C          10.9273   -1.7749   -1.0870 C.ar    2  LIG2        0.0000
      6 C           9.7584   -0.0148    3.0488 C.ar    2  LIG2        0.0000
      7 C           6.9283    0.8246    0.9000 C.ar    2  LIG2        0.0000
      8 C           3.1022    8.2734    2.7896 C.3     1  LIG1        0.0000
      9 H           3.2359    8.7625    1.9285 H       1  LIG1        0.0000
     10 C           9.3987   -0.6384   -2.4799 C.ar    2  LIG2        0.0000
     11 C          11.3761    1.6614    4.4290 C.ar    2  LIG2        0.0000
     12 C           7.9712    1.7161    1.1387 C.ar    2  LIG2        0.0000
     13 C          10.7132   -0.8247   -0.1081 C.ar    2  LIG2        0.0000
     14 C           7.5675    2.8365    1.8516 C.ar    2  LIG2        0.0000
     15 C           6.7772    7.1832    0.2350 C.2     1  LIG1        0.0000
     16 C           9.8308    0.2343   -0.2302 C.ar    2  LIG2        0.0000
     17 C          10.1597    1.1365    2.3766 C.ar    2  LIG2        0.0000
     18 C           5.6183    1.0281    1.2951 C.ar    2  LIG2        0.0000
     19 C          10.5945    4.7525   -1.1930 C.ar    2  LIG2        0.0000
     20 C          11.7736    2.6337    0.0348 C.ar    2  LIG2        0.0000
     21 C          10.3854    2.7058    0.1337 C.ar    2  LIG2        0.0000
     22 C          10.9768    0.4852    5.0258 C.ar    2  LIG2        0.0000
     23 C           9.2243    0.2877   -1.4784 C.ar    2  LIG2        0.0000
     24 C           7.3927    6.9982    3.7796 C.3     1  LIG1        0.0000
     25 H           6.6612    7.0476    4.4310 H       1  LIG1        0.0000
     26 H           8.0161    7.7387    3.9318 H       1  LIG1        0.0000
     27 H           7.8658    6.1461    3.8846 H       1  LIG1        0.0000
     28 C           3.8217    7.3147    5.5764 C.3     1  LIG1        0.0000
     29 H           3.3377    6.7589    6.2375 H       1  LIG1        0.0000
     30 H           4.6872    7.5702    5.9822 H       1  LIG1        0.0000
     31 C           1.7509    7.5147    2.7690 C.3     1  LIG1        0.0000
     32 H           1.0301    8.1637    2.9643 H       1  LIG1        0.0000
     33 H           1.6014    7.1753    1.8504 H       1  LIG1        0.0000
     34 C           6.2775    3.0832    2.2569 C.ar    2  LIG2        0.0000
     35 C           5.2810    2.1622    1.9865 C.ar    2  LIG2        0.0000
     36 C           3.0047    8.5972    5.3326 C.3     1  LIG1        0.0000
     37 H           2.0406    8.3783    5.3887 H       1  LIG1        0.0000
     38 H           3.2077    9.2476    6.0505 H       1  LIG1        0.0000
     39 C          11.9664    4.6467   -1.2174 C.ar    2  LIG2        0.0000
     40 C           9.8432    3.8013   -0.5142 C.ar    2  LIG2        0.0000
     41 C           4.3036    7.4167   -0.1111 C.3     1  LIG1        0.0000
     42 H           3.5084    7.4876    0.4585 H       1  LIG1        0.0000
     43 H           4.2268    6.6237   -0.6813 H       1  LIG1        0.0000
     44 H           4.3758    8.2173   -0.6716 H       1  LIG1        0.0000
     45 C           4.1092    6.4444    4.3266 C.3     1  LIG1        0.0000
     46 H           4.9198    5.8800    4.4797 H       1  LIG1        0.0000
     47 C           5.5404    7.2341    2.0846 C.3     1  LIG1        0.0000
     48 C          10.1496   -0.3578    4.3248 C.ar    2  LIG2        0.0000
     49 C          10.9607    1.9625    3.1459 C.ar    2  LIG2        0.0000
     50 C           2.9081    5.5521    3.9066 C.3     1  LIG1        0.0000
     51 H           3.1241    5.1008    3.0521 H       1  LIG1        0.0000
     52 H           2.7710    4.8518    4.5919 H       1  LIG1        0.0000
     53 C           1.6147    6.3436    3.7384 C.3     1  LIG1        0.0000
     54 H           1.3313    6.6891    4.6228 H       1  LIG1        0.0000
     55 H           0.9058    5.7351    3.4098 H       1  LIG1        0.0000
     56 C           3.2810    9.2466    3.9921 C.3     1  LIG1        0.0000
     57 H           4.2085    9.5942    3.9887 H       1  LIG1        0.0000
     58 H           2.6692   10.0171    3.8765 H       1  LIG1        0.0000
     59 C          12.5597    3.5821   -0.5807 C.ar    2  LIG2        0.0000
     60 CL          9.2895    6.8829    1.3075 Cl      1  LIG1        0.0000
     61 CL          7.1220    7.2308   -1.4171 Cl      1  LIG1        0.0000
     62 F          11.3855    3.1547    2.6880 F       2  LIG2        0.0000
     63 F          12.1749    2.5079    5.1006 F       2  LIG2        0.0000
     64 F          11.3667    0.1922    6.2777 F       2  LIG2        0.0000
     65 F           9.7260   -1.5082    4.8998 F       2  LIG2        0.0000
     66 F           8.9263   -0.8955    2.4313 F       2  LIG2        0.0000
     67 F           7.1437   -0.3517    0.2572 F       2  LIG2        0.0000
     68 F           4.6797    0.0968    1.0280 F       2  LIG2        0.0000
     69 F           4.0345    2.3749    2.4126 F       2  LIG2        0.0000
     70 F           5.9723    4.1971    2.9508 F       2  LIG2        0.0000
     71 F           8.4840    3.7710    2.2036 F       2  LIG2        0.0000
     72 F           8.5106    4.0136   -0.5455 F       2  LIG2        0.0000
     73 F           9.9833    5.7700   -1.8290 F       2  LIG2        0.0000
     74 F          12.7151    5.5628   -1.8560 F       2  LIG2        0.0000
     75 F          13.9072    3.4754   -0.5709 F       2  LIG2        0.0000
     76 F          12.4284    1.5912    0.5940 F       2  LIG2        0.0000
     77 F           8.3754    1.3097   -1.7600 F       2  LIG2        0.0000
     78 F           8.7535   -0.5174   -3.6602 F       2  LIG2        0.0000
     79 F          10.4614   -2.5967   -3.2531 F       2  LIG2        0.0000
     80 F          11.8176   -2.7691   -0.8777 F       2  LIG2        0.0000
     81 F          11.4448   -0.9857    1.0148 F       2  LIG2        0.0000
     82 N           5.5042    7.3002    0.7345 N.pl3   1  LIG1        0.0000
     83 N           6.8443    7.0899    2.4186 N.pl3   1  LIG1        0.0000
@<TRIPOS>BOND
     1    78    10    1
     2    79     4    1
     3    10     4   ar
     4    10    23   ar
     5     4     5   ar
     6    74    39    1
     7    73    19    1
     8    77    23    1
     9    23    16   ar
    10    61    15    1
    11    39    19   ar
    12    39    59   ar
    13    19    40   ar
    14     5    80    1
    15     5    13   ar
    16    43    41    1
    17    44    41    1
    18    59    75    1
    19    59    20   ar
    20    72    40    1
    21    40    21   ar
    22    16    13   ar
    23    16     2    1
    24    41    42    1
    25    41    82    1
    26    13    81    1
    27    20    21   ar
    28    20    76    1
    29    21     2    1
    30    15    82    1
    31    15     3    2
    32    67     7    1
    33    82    47    1
    34     2    12    1
    35     2    17    1
    36     7    12   ar
    37     7    18   ar
    38    68    18    1
    39    12    14   ar
    40     3    60    1
    41     3    83    1
    42    18    35   ar
    43    33    31    1
    44    14    71    1
    45    14    34   ar
    46     9     8    1
    47    35    34   ar
    48    35    69    1
    49    47    83    1
    50    47     1    1
    51    34    70    1
    52    17     6   ar
    53    17    49   ar
    54    83    24    1
    55    66     6    1
    56    62    49    1
    57    31     8    1
    58    31    32    1
    59    31    53    1
    60     8     1    1
    61     8    56    1
    62     1    45    1
    63     6    48   ar
    64    51    50    1
    65    49    11   ar
    66    55    53    1
    67    53    50    1
    68    53    54    1
    69    24    27    1
    70    24    26    1
    71    24    25    1
    72    58    56    1
    73    50    45    1
    74    50    52    1
    75    57    56    1
    76    56    36    1
    77    48    65    1
    78    48    22   ar
    79    45    46    1
    80    45    28    1
    81    11    22   ar
    82    11    63    1
    83    22    64    1
    84    36    37    1
    85    36    28    1
    86    36    38    1
    87    28    30    1
    88    28    29    1
