@<TRIPOS>MOLECULE
C10 H13 N O4
 28 30 0 0 0
SMALL
GASTEIGER

@<TRIPOS>ATOM
      1 O           0.7163    4.2353    3.7550 O.2     1  LIG1       -0.2746
      2 O           1.3140    1.3285    7.1932 O.2     1  LIG1       -0.2747
      3 O           3.8746    2.9419    5.3155 O.3     1  LIG1       -0.3712
      4 O           0.4156    5.9802    6.3410 O.3     1  LIG1       -0.3939
      5 H           0.0800    6.7228    6.1384 H       1  LIG1        0.2094
      6 N           0.7436    2.6592    5.4137 N.am    1  LIG1       -0.2552
      7 H           0.1166    2.1391    5.0802 H       1  LIG1        0.1575
      8 C           3.5648    4.3215    5.0155 C.3     1  LIG1        0.0762
      9 H           3.5524    4.5218    4.0356 H       1  LIG1        0.0607
     10 C           1.7839    5.9541    5.9441 C.3     1  LIG1        0.0616
     11 H           2.3509    6.3462    6.6540 H       1  LIG1        0.0568
     12 H           1.9079    6.4823    5.1156 H       1  LIG1        0.0568
     13 C           4.7883    4.2032    7.0583 C.3     1  LIG1       -0.0232
     14 H           5.7096    3.8606    7.1730 H       1  LIG1        0.0291
     15 H           4.5243    4.7105    7.8672 H       1  LIG1        0.0291
     16 C           4.6607    5.0717    5.7760 C.3     1  LIG1       -0.0231
     17 H           4.3856    5.9982    5.9901 H       1  LIG1        0.0291
     18 H           5.5086    5.0918    5.2656 H       1  LIG1        0.0291
     19 C           1.1303    3.8250    4.8334 C.2     1  LIG1        0.2312
     20 C           1.9592    4.0586    8.3212 C.3     1  LIG1       -0.0477
     21 H           2.4448    4.8892    8.5041 H       1  LIG1        0.0241
     22 H           2.1961    3.3865    8.9945 H       1  LIG1        0.0241
     23 H           0.9946    4.2295    8.3559 H       1  LIG1        0.0241
     24 C           3.8018    3.0702    6.7612 C.3     1  LIG1        0.0739
     25 H           4.0079    2.2219    7.2488 H       1  LIG1        0.0606
     26 C           2.3362    3.5438    6.9326 C.3     1  LIG1        0.0889
     27 C           1.4340    2.3659    6.5856 C.2     1  LIG1        0.2288
     28 C           2.1785    4.5003    5.7018 C.3     1  LIG1        0.1121
@<TRIPOS>BOND
     1     1    19    2
     2     9     8    1
     3    19     6   am
     4    19    28    1
     5     8     3    1
     6     8    28    1
     7     8    16    1
     8     7     6    1
     9    12    10    1
    10    18    16    1
    11     3    24    1
    12     6    27   am
    13    28    10    1
    14    28    26    1
    15    16    17    1
    16    16    13    1
    17    10     4    1
    18    10    11    1
    19     5     4    1
    20    27    26    1
    21    27     2    2
    22    24    26    1
    23    24    13    1
    24    24    25    1
    25    26    20    1
    26    13    14    1
    27    13    15    1
    28    20    23    1
    29    20    21    1
    30    20    22    1
