@<TRIPOS>MOLECULE
()-10,10-dimethylhexahydro-2H-pyrrolo[1,2-b][1,2]oxazecine-7,9,11(10H)-trione
 37 38 0 0 0
SMALL
GASTEIGER

@<TRIPOS>ATOM
      1 C           6.8471    8.4838    3.6331 C.2     1  LIG1        0.2517
      2 C           5.7651    7.9213    4.5452 C.3     1  LIG1        0.1033
      3 C           6.5369    7.5668    5.8089 C.2     1  LIG1        0.1707
      4 C           8.0285    7.7855    5.6130 C.3     1  LIG1        0.1186
      5 H           8.3480    8.5427    6.1837 H       1  LIG1        0.0609
      6 C           8.8606    6.5447    5.8651 C.3     1  LIG1        0.0337
      7 H           8.6523    5.8601    5.1814 H       1  LIG1        0.0365
      8 H           8.6393    6.1703    6.7544 H       1  LIG1        0.0365
      9 C          10.3552    6.8945    5.8087 C.2     1  LIG1        0.1356
     10 C          11.2109    6.0082    4.9674 C.3     1  LIG1        0.0059
     11 H          10.6485    5.6046    4.2600 H       1  LIG1        0.0342
     12 H          11.5538    5.2708    5.5333 H       1  LIG1        0.0342
     13 C          12.3870    6.6965    4.3111 C.3     1  LIG1       -0.0463
     14 H          12.8066    6.0562    3.6833 H       1  LIG1        0.0269
     15 H          13.0541    6.9001    5.0138 H       1  LIG1        0.0269
     16 C          12.0948    7.9930    3.5422 C.3     1  LIG1       -0.0505
     17 H          12.9573    8.3607    3.2256 H       1  LIG1        0.0266
     18 H          11.7138    8.6473    4.1815 H       1  LIG1        0.0266
     19 C          11.1442    7.9043    2.3340 C.3     1  LIG1       -0.0272
     20 H          11.2114    8.7529    1.8286 H       1  LIG1        0.0288
     21 H          11.4714    7.1830    1.7406 H       1  LIG1        0.0288
     22 C           9.6795    7.6460    2.6232 C.3     1  LIG1        0.0736
     23 H           9.1421    7.7789    1.8024 H       1  LIG1        0.0584
     24 H           9.5527    6.7134    2.9319 H       1  LIG1        0.0584
     25 C           5.1842    6.6446    3.9295 C.3     1  LIG1       -0.0445
     26 H           4.6601    6.8756    3.1341 H       1  LIG1        0.0244
     27 H           4.6075    6.1996    4.5834 H       1  LIG1        0.0244
     28 H           5.9154    6.0430    3.6750 H       1  LIG1        0.0244
     29 C           4.6603    8.9330    4.8438 C.3     1  LIG1       -0.0445
     30 H           5.0531    9.7392    5.2385 H       1  LIG1        0.0244
     31 H           4.0192    8.5408    5.4739 H       1  LIG1        0.0244
     32 H           4.1986    9.1678    4.0127 H       1  LIG1        0.0244
     33 N           8.0338    8.1749    4.1929 N.am    1  LIG1       -0.1693
     34 O           6.6840    9.0569    2.5621 O.2     1  LIG1       -0.2724
     35 O           9.2533    8.5814    3.6606 O.3     1  LIG1       -0.2765
     36 O          10.8211    7.8504    6.4189 O.2     1  LIG1       -0.2973
     37 O           6.0597    7.1547    6.8389 O.2     1  LIG1       -0.2942
@<TRIPOS>BOND
     1    21    19    1
     2    23    22    1
     3    20    19    1
     4    19    22    1
     5    19    16    1
     6    34     1    2
     7    22    24    1
     8    22    35    1
     9    26    25    1
    10    17    16    1
    11    16    18    1
    12    16    13    1
    13     1    33   am
    14     1     2    1
    15    35    33    1
    16    28    25    1
    17    14    13    1
    18    25     2    1
    19    25    27    1
    20    32    29    1
    21    33     4    1
    22    11    10    1
    23    13    10    1
    24    13    15    1
    25     2    29    1
    26     2     3    1
    27    29    30    1
    28    29    31    1
    29    10    12    1
    30    10     9    1
    31     7     6    1
    32     4     3    1
    33     4     6    1
    34     4     5    1
    35     9     6    1
    36     9    36    2
    37     3    37    2
    38     6     8    1
