@<TRIPOS>MOLECULE
C42 H30, 0.5(C8 H10)
 162 174 0 0 0
SMALL
GASTEIGER

@<TRIPOS>ATOM
      1 C           0.1319    8.1989   11.5716 C.2     1  LIG1       -0.0181
      2 C          -0.2170    9.3530   12.5017 C.2     1  LIG1       -0.0211
      3 C          -0.8417   10.0171   11.3279 C.2     1  LIG1       -0.0192
      4 C          -0.5220    8.9832   10.4887 C.3     1  LIG1        0.0648
      5 C           0.7696    7.0046   11.5709 C.2     1  LIG1       -0.0060
      6 C           1.5959    6.4691   12.6800 C.ar    1  LIG1       -0.0170
      7 C           1.5931    5.0987   12.9527 C.ar    1  LIG1       -0.0540
      8 H           1.0474    4.5195   12.4350 H       1  LIG1        0.0624
      9 C           2.3763    4.5712   13.9705 C.ar    1  LIG1       -0.0612
     10 H           2.3625    3.6374   14.1441 H       1  LIG1        0.0618
     11 C           3.1779    5.4047   14.7306 C.ar    1  LIG1       -0.0617
     12 H           3.7089    5.0477   15.4333 H       1  LIG1        0.0618
     13 C           3.2005    6.7631   14.4617 C.ar    1  LIG1       -0.0612
     14 H           3.7520    7.3372   14.9788 H       1  LIG1        0.0618
     15 C           2.4235    7.2914   13.4417 C.ar    1  LIG1       -0.0540
     16 H           2.4563    8.2238   13.2599 H       1  LIG1        0.0624
     17 C           0.6763    6.1405   10.3600 C.ar    1  LIG1       -0.0170
     18 C           1.8373    5.6154    9.7843 C.ar    1  LIG1       -0.0540
     19 H           2.6821    5.7938   10.1802 H       1  LIG1        0.0624
     20 C           1.7666    4.8365    8.6393 C.ar    1  LIG1       -0.0612
     21 H           2.5617    4.4938    8.2489 H       1  LIG1        0.0618
     22 C           0.5370    4.5577    8.0634 C.ar    1  LIG1       -0.0617
     23 H           0.4899    4.0283    7.2758 H       1  LIG1        0.0618
     24 C          -0.6215    5.0515    8.6359 C.ar    1  LIG1       -0.0612
     25 H          -1.4651    4.8520    8.2464 H       1  LIG1        0.0618
     26 C          -0.5537    5.8364    9.7756 C.ar    1  LIG1       -0.0540
     27 H          -1.3542    6.1705   10.1629 H       1  LIG1        0.0624
     28 C          -0.0683    9.7270   13.7963 C.3     1  LIG1        0.0637
     29 C           0.2230    8.7799   14.8927 C.ar    1  LIG1       -0.0310
     30 C          -0.3576    7.5153   14.9114 C.ar    1  LIG1       -0.0574
     31 H          -0.9199    7.2460   14.1935 H       1  LIG1        0.0621
     32 C          -0.1256    6.6427   15.9633 C.ar    1  LIG1       -0.0615
     33 H          -0.5207    5.7786   15.9593 H       1  LIG1        0.0618
     34 C           0.6780    7.0280   17.0164 C.ar    1  LIG1       -0.0617
     35 H           0.8320    6.4322   17.7400 H       1  LIG1        0.0618
     36 C           1.2625    8.2882   17.0186 C.ar    1  LIG1       -0.0615
     37 H           1.8164    8.5535   17.7425 H       1  LIG1        0.0618
     38 C           1.0386    9.1558   15.9655 C.ar    1  LIG1       -0.0574
     39 H           1.4431   10.0154   15.9692 H       1  LIG1        0.0621
     40 C          -0.2305   11.1563   14.1693 C.ar    1  LIG1       -0.0310
     41 C          -0.9003   11.5264   15.3414 C.ar    1  LIG1       -0.0574
     42 H          -1.2714   10.8564   15.9025 H       1  LIG1        0.0621
     43 C          -1.0275   12.8646   15.6906 C.ar    1  LIG1       -0.0615
     44 H          -1.4828   13.1041   16.4903 H       1  LIG1        0.0618
     45 C          -0.4941   13.8506   14.8818 C.ar    1  LIG1       -0.0617
     46 H          -0.5907   14.7661   15.1196 H       1  LIG1        0.0618
     47 C           0.1826   13.4993   13.7237 C.ar    1  LIG1       -0.0615
     48 H           0.5524   14.1741   13.1685 H       1  LIG1        0.0618
     49 C           0.3194   12.1627   13.3762 C.ar    1  LIG1       -0.0574
     50 H           0.7947   11.9300   12.5857 H       1  LIG1        0.0621
     51 C          -1.6086   11.2453   11.1192 C.ar    1  LIG1       -0.0203
     52 C          -1.4714   11.9769    9.9317 C.ar    1  LIG1       -0.0543
     53 H          -0.8639   11.6825    9.2639 H       1  LIG1        0.0624
     54 C          -2.2165   13.1278    9.7265 C.ar    1  LIG1       -0.0612
     55 H          -2.1161   13.6176    8.9182 H       1  LIG1        0.0618
     56 C          -3.1083   13.5676   10.6934 C.ar    1  LIG1       -0.0617
     57 H          -3.6114   14.3612   10.5531 H       1  LIG1        0.0618
     58 C          -3.2636   12.8444   11.8653 C.ar    1  LIG1       -0.0612
     59 H          -3.8803   13.1381   12.5239 H       1  LIG1        0.0618
     60 C          -2.5200   11.6934   12.0777 C.ar    1  LIG1       -0.0543
     61 H          -2.6322   11.2046   12.8845 H       1  LIG1        0.0624
     62 C          -0.7445    8.7913    9.0523 C.ar    1  LIG1       -0.0310
     63 C           0.2965    8.4204    8.1995 C.ar    1  LIG1       -0.0574
     64 H           1.1719    8.2983    8.5477 H       1  LIG1        0.0621
     65 C           0.0595    8.2296    6.8493 C.ar    1  LIG1       -0.0615
     66 H           0.7724    7.9777    6.2731 H       1  LIG1        0.0618
     67 C          -1.2132    8.4057    6.3368 C.ar    1  LIG1       -0.0617
     68 H          -1.3743    8.2690    5.4112 H       1  LIG1        0.0618
     69 C          -2.2532    8.7813    7.1708 C.ar    1  LIG1       -0.0615
     70 H          -3.1272    8.8989    6.8164 H       1  LIG1        0.0618
     71 C          -2.0190    8.9858    8.5247 C.ar    1  LIG1       -0.0574
     72 H          -2.7297    9.2587    9.0935 H       1  LIG1        0.0621
     73 C           5.3475    6.6235    0.8066 C.2     2  LIG2       -0.0181
     74 C           5.0047    5.4895   -0.1425 C.2     2  LIG2       -0.0211
     75 C           4.3889    4.8002    1.0183 C.2     2  LIG2       -0.0192
     76 C           4.6921    5.8222    1.8760 C.3     2  LIG2        0.0648
     77 C           6.0083    7.8008    0.8192 C.2     2  LIG2       -0.0060
     78 C           6.8331    8.3277   -0.2934 C.ar    2  LIG2       -0.0170
     79 C           7.6660    7.5026   -1.0467 C.ar    2  LIG2       -0.0540
     80 H           7.7067    6.5738   -0.8521 H       2  LIG2        0.0624
     81 C           8.4370    8.0244   -2.0765 C.ar    2  LIG2       -0.0612
     82 H           8.9925    7.4496   -2.5907 H       2  LIG2        0.0618
     83 C           8.3977    9.3777   -2.3561 C.ar    2  LIG2       -0.0617
     84 H           8.9221    9.7316   -3.0649 H       2  LIG2        0.0618
     85 C           7.5928   10.2187   -1.6028 C.ar    2  LIG2       -0.0612
     86 H           7.5723   11.1505   -1.7881 H       2  LIG2        0.0618
     87 C           6.8192    9.6960   -0.5787 C.ar    2  LIG2       -0.0540
     88 H           6.2717   10.2756   -0.0642 H       2  LIG2        0.0624
     89 C           5.9851    8.6541    2.0442 C.ar    2  LIG2       -0.0170
     90 C           7.2008    9.0677    2.5981 C.ar    2  LIG2       -0.0540
     91 H           8.0173    8.8147    2.1832 H       2  LIG2        0.0624
     92 C           7.2267    9.8419    3.7446 C.ar    2  LIG2       -0.0612
     93 H           8.0588   10.0998    4.1244 H       2  LIG2        0.0618
     94 C           6.0416   10.2408    4.3381 C.ar    2  LIG2       -0.0617
     95 H           6.0591   10.7773    5.1222 H       2  LIG2        0.0618
     96 C           4.8309    9.8567    3.7868 C.ar    2  LIG2       -0.0612
     97 H           4.0175   10.1379    4.1911 H       2  LIG2        0.0618
     98 C           4.7997    9.0632    2.6468 C.ar    2  LIG2       -0.0540
     99 H           3.9657    8.7990    2.2771 H       2  LIG2        0.0624
    100 C           5.1646    5.1298   -1.4391 C.3     2  LIG2        0.0637
    101 C           5.4902    6.0743   -2.5295 C.ar    2  LIG2       -0.0310
    102 C           4.9424    7.3582   -2.5576 C.ar    2  LIG2       -0.0574
    103 H           4.3709    7.6415   -1.8548 H       2  LIG2        0.0621
    104 C           5.2243    8.2231   -3.6036 C.ar    2  LIG2       -0.0615
    105 H           4.8579    9.0992   -3.6033 H       2  LIG2        0.0618
    106 C           6.0369    7.8163   -4.6460 C.ar    2  LIG2       -0.0617
    107 H           6.2182    8.4080   -5.3667 H       2  LIG2        0.0618
    108 C           6.5874    6.5428   -4.6376 C.ar    2  LIG2       -0.0615
    109 H           7.1471    6.2620   -5.3519 H       2  LIG2        0.0618
    110 C           6.3195    5.6809   -3.5865 C.ar    2  LIG2       -0.0574
    111 H           6.7033    4.8117   -3.5836 H       2  LIG2        0.0621
    112 C           5.0271    3.7005   -1.8261 C.ar    2  LIG2       -0.0310
    113 C           5.6402    2.7025   -1.0711 C.ar    2  LIG2       -0.0574
    114 H           6.0897    2.9326   -0.2667 H       2  LIG2        0.0621
    115 C           5.6027    1.3743   -1.4791 C.ar    2  LIG2       -0.0615
    116 H           6.0286    0.7045   -0.9558 H       2  LIG2        0.0618
    117 C           4.9472    1.0282   -2.6433 C.ar    2  LIG2       -0.0617
    118 H           4.9353    0.1237   -2.9316 H       2  LIG2        0.0618
    119 C           4.3073    2.0021   -3.3882 C.ar    2  LIG2       -0.0615
    120 H           3.8365    1.7607   -4.1763 H       2  LIG2        0.0618
    121 C           4.3491    3.3284   -2.9911 C.ar    2  LIG2       -0.0574
    122 H           3.9132    3.9912   -3.5144 H       2  LIG2        0.0621
    123 C           3.6726    3.5394    1.2025 C.ar    2  LIG2       -0.0203
    124 C           3.9082    2.7540    2.3324 C.ar    2  LIG2       -0.0543
    125 H           4.5366    3.0413    2.9834 H       2  LIG2        0.0624
    126 C           3.2310    1.5568    2.5102 C.ar    2  LIG2       -0.0612
    127 H           3.4052    1.0252    3.2773 H       2  LIG2        0.0618
    128 C           2.3027    1.1326    1.5754 C.ar    2  LIG2       -0.0617
    129 H           1.8401    0.3124    1.6992 H       2  LIG2        0.0618
    130 C           2.0508    1.9136    0.4542 C.ar    2  LIG2       -0.0612
    131 H           1.4073    1.6301   -0.1852 H       2  LIG2        0.0618
    132 C           2.7329    3.1008    0.2660 C.ar    2  LIG2       -0.0543
    133 H           2.5613    3.6234   -0.5088 H       2  LIG2        0.0624
    134 C           4.4484    5.9952    3.3131 C.ar    2  LIG2       -0.0310
    135 C           3.1718    5.7712    3.8192 C.ar    2  LIG2       -0.0574
    136 H           2.4789    5.4842    3.2378 H       2  LIG2        0.0621
    137 C           2.9018    5.9637    5.1689 C.ar    2  LIG2       -0.0615
    138 H           2.0260    5.8182    5.5050 H       2  LIG2        0.0618
    139 C           3.9112    6.3680    6.0199 C.ar    2  LIG2       -0.0617
    140 H           3.7269    6.5095    6.9399 H       2  LIG2        0.0618
    141 C           5.1899    6.5657    5.5327 C.ar    2  LIG2       -0.0615
    142 H           5.8845    6.8280    6.1249 H       2  LIG2        0.0618
    143 C           5.4645    6.3838    4.1886 C.ar    2  LIG2       -0.0574
    144 H           6.3452    6.5227    3.8602 H       2  LIG2        0.0621
    145 C           8.0452    0.8008    6.0824 C.3     3  LIG3       -0.0397
    146 H           8.4009    0.8615    5.1716 H       3  LIG3        0.0278
    147 H           8.1475   -0.1163    6.4114 H       3  LIG3        0.0278
    148 H           8.5369    1.4148    6.6658 H       3  LIG3        0.0278
    149 C           6.5880    1.1718    6.0780 C.ar    3  LIG3       -0.0504
    150 C           5.6088    0.2140    6.3106 C.ar    3  LIG3       -0.0586
    151 H           5.8674   -0.6810    6.4978 H       3  LIG3        0.0620
    152 C           4.2626    0.5379    6.2756 C.ar    3  LIG3       -0.0586
    153 H           3.6146   -0.1393    6.4311 H       3  LIG3        0.0620
    154 C           3.8464    1.8351    6.0155 C.ar    3  LIG3       -0.0504
    155 C           4.8232    2.8010    5.8029 C.ar    3  LIG3       -0.0586
    156 H           4.5628    3.6989    5.6334 H       3  LIG3        0.0620
    157 C           6.1698    2.4762    5.8350 C.ar    3  LIG3       -0.0586
    158 H           6.8180    3.1552    5.6878 H       3  LIG3        0.0620
    159 C           2.3820    2.1790    5.9787 C.3     3  LIG3       -0.0397
    160 H           1.9102    1.5383    5.4087 H       3  LIG3        0.0278
    161 H           2.2680    3.0837    5.6186 H       3  LIG3        0.0278
    162 H           2.0146    2.1398    6.8856 H       3  LIG3        0.0278
@<TRIPOS>BOND
     1   107   106    1
     2   109   108    1
     3   106   108   ar
     4   106   104   ar
     5   108   110   ar
     6   120   119    1
     7   104   105    1
     8   104   102   ar
     9   110   111    1
    10   110   101   ar
    11   122   121    1
    12   119   121   ar
    13   119   117   ar
    14    84    83    1
    15   121   112   ar
    16   118   117    1
    17   117   115   ar
    18    82    81    1
    19   102   101   ar
    20   102   103    1
    21   101   100    1
    22    83    81   ar
    23    83    85   ar
    24    81    79   ar
    25   112   100    1
    26   112   113   ar
    27    86    85    1
    28    85    87   ar
    29   115   113   ar
    30   115   116    1
    31   100    74    1
    32   113   114    1
    33    79    80    1
    34    79    78   ar
    35    87    78   ar
    36    87    88    1
    37   133   132    1
    38    78    77    1
    39   131   130    1
    40    74    73    1
    41    74    75    2
    42   132   130   ar
    43   132   123   ar
    44   130   128   ar
    45    73    77    2
    46    73    76    1
    47    77    89    1
    48    75   123    1
    49    75    76    1
    50   123   124   ar
    51   128   129    1
    52   128   126   ar
    53    76   134    1
    54    89    90   ar
    55    89    98   ar
    56    91    90    1
    57    99    98    1
    58   124   126   ar
    59   124   125    1
    60   126   127    1
    61    90    92   ar
    62    98    96   ar
    63   136   135    1
    64   134   135   ar
    65   134   143   ar
    66    92    93    1
    67    92    94   ar
    68    96    97    1
    69    96    94   ar
    70   135   137   ar
    71   144   143    1
    72   143   141   ar
    73    94    95    1
    74   137   138    1
    75   137   139   ar
    76   146   145    1
    77   160   159    1
    78    68    67    1
    79   141   139   ar
    80   141   142    1
    81   161   159    1
    82   156   155    1
    83   158   157    1
    84   155   157   ar
    85   155   154   ar
    86   157   149   ar
    87   159   154    1
    88   159   162    1
    89   154   152   ar
    90   139   140    1
    91   149   145    1
    92   149   150   ar
    93   145   147    1
    94   145   148    1
    95    66    65    1
    96   152   150   ar
    97   152   153    1
    98   150   151    1
    99    67    65   ar
   100    67    69   ar
   101    70    69    1
   102    65    63   ar
   103    69    71   ar
   104    23    22    1
   105    22    24   ar
   106    22    20   ar
   107    63    64    1
   108    63    62   ar
   109    25    24    1
   110    21    20    1
   111    71    62   ar
   112    71    72    1
   113    24    26   ar
   114    20    18   ar
   115    55    54    1
   116    62     4    1
   117    53    52    1
   118    54    52   ar
   119    54    56   ar
   120    26    27    1
   121    26    17   ar
   122    18    19    1
   123    18    17   ar
   124    52    51   ar
   125    17     5    1
   126     4     3    1
   127     4     1    1
   128    57    56    1
   129    56    58   ar
   130    51     3    1
   131    51    60   ar
   132     3     2    2
   133     5     1    2
   134     5     6    1
   135     1     2    1
   136    58    60   ar
   137    58    59    1
   138    60    61    1
   139     8     7    1
   140     2    28    1
   141    50    49    1
   142     6     7   ar
   143     6    15   ar
   144     7     9   ar
   145    48    47    1
   146    16    15    1
   147    49    47   ar
   148    49    40   ar
   149    15    13   ar
   150    47    45   ar
   151    28    40    1
   152    28    29    1
   153     9    10    1
   154     9    11   ar
   155    40    41   ar
   156    31    30    1
   157    13    11   ar
   158    13    14    1
   159    11    12    1
   160    45    46    1
   161    45    43   ar
   162    29    30   ar
   163    29    38   ar
   164    30    32   ar
   165    41    43   ar
   166    41    42    1
   167    43    44    1
   168    33    32    1
   169    32    34   ar
   170    38    39    1
   171    38    36   ar
   172    34    36   ar
   173    34    35    1
   174    36    37    1
