@<TRIPOS>MOLECULE
C19 H20 N4 O3
 46 49 0 0 0
SMALL
GASTEIGER

@<TRIPOS>ATOM
      1 O           8.3173    8.0163    5.3261 O.3     1  LIG1       -0.3480
      2 O           3.2525    4.8218    7.7227 O.2     1  LIG1       -0.2697
      3 O           5.4910   10.2956    9.4977 O.3     1  LIG1       -0.3767
      4 N           5.4615    7.4881    9.9060 N.pl3   1  LIG1       -0.3102
      5 N           5.6922    5.9357   11.6339 N.ar    1  LIG1       -0.2395
      6 N           5.1796    6.0117    7.3630 N.am    1  LIG1       -0.2810
      7 H           5.8829    6.3020    7.7643 H       1  LIG1        0.1551
      8 N           7.6795    7.1066    7.2884 N.3     1  LIG1       -0.1970
      9 C           5.0919    6.2923    5.9891 C.ar    1  LIG1        0.0411
     10 C           5.2656    6.1831   10.3917 C.ar    1  LIG1        0.1336
     11 C           4.6574    5.1941    9.5875 C.ar    1  LIG1        0.0768
     12 C           7.3994    7.3355    6.0709 C.3     1  LIG1        0.2123
     13 C           4.2829    5.3330    8.1387 C.2     1  LIG1        0.2516
     14 C           4.3678    3.9710   10.1803 C.ar    1  LIG1       -0.0449
     15 H           3.8962    3.3228    9.7094 H       1  LIG1        0.0627
     16 C           4.7859    3.7241   11.4762 C.ar    1  LIG1       -0.0427
     17 H           4.6021    2.9115   11.8885 H       1  LIG1        0.0633
     18 C           6.1086    7.2154    3.9792 C.ar    1  LIG1       -0.0526
     19 H           6.8322    7.6184    3.5558 H       1  LIG1        0.0622
     20 C           5.4822    4.7123   12.1427 C.ar    1  LIG1        0.0297
     21 H           5.8232    4.5205   12.9860 H       1  LIG1        0.0830
     22 C           6.1783    6.9424    5.3520 C.ar    1  LIG1        0.0260
     23 C           3.9575    5.9787    5.2276 C.ar    1  LIG1       -0.0401
     24 H           3.2332    5.5571    5.6313 H       1  LIG1        0.0636
     25 C           4.9812    6.8954    3.2422 C.ar    1  LIG1       -0.0613
     26 H           4.9460    7.0831    2.3322 H       1  LIG1        0.0618
     27 C           4.2542    8.2140    9.4877 C.3     1  LIG1        0.0370
     28 H           3.7391    8.4721   10.2677 H       1  LIG1        0.0487
     29 H           3.7012    7.6405    8.9350 H       1  LIG1        0.0487
     30 C           6.3143    8.3565   10.7164 C.3     1  LIG1        0.0370
     31 H           7.1281    7.8889   10.9622 H       1  LIG1        0.0487
     32 H           5.8511    8.6125   11.5295 H       1  LIG1        0.0487
     33 C           9.3685    8.4029    6.2445 C.3     1  LIG1        0.0647
     34 H           9.3531    9.3589    6.4091 H       1  LIG1        0.0574
     35 H          10.2405    8.1559    5.8992 H       1  LIG1        0.0574
     36 C           6.6485    9.5858    9.9002 C.3     1  LIG1        0.0634
     37 H           7.2141   10.1720   10.4264 H       1  LIG1        0.0575
     38 H           7.1476    9.3184    9.1128 H       1  LIG1        0.0575
     39 C           3.9059    6.2924    3.8755 C.ar    1  LIG1       -0.0600
     40 H           3.1385    6.0951    3.3880 H       1  LIG1        0.0618
     41 C           9.0393    7.6204    7.5189 C.3     1  LIG1        0.0409
     42 H           9.6669    6.8924    7.6495 H       1  LIG1        0.0464
     43 H           9.0633    8.1998    8.2968 H       1  LIG1        0.0464
     44 C           4.6568    9.4490    8.7061 C.3     1  LIG1        0.0634
     45 H           5.1327    9.1840    7.9039 H       1  LIG1        0.0575
     46 H           3.8617    9.9357    8.4375 H       1  LIG1        0.0575
@<TRIPOS>BOND
     1    26    25    1
     2    25    39   ar
     3    25    18   ar
     4    40    39    1
     5    19    18    1
     6    39    23   ar
     7    18    22   ar
     8    23    24    1
     9    23     9   ar
    10     1    12    1
    11     1    33    1
    12    22     9   ar
    13    22    12    1
    14    35    33    1
    15     9     6    1
    16    12     8    1
    17    33    34    1
    18    33    41    1
    19     8    41    1
    20     6     7    1
    21     6    13   am
    22    41    42    1
    23    41    43    1
    24     2    13    2
    25    45    44    1
    26    13    11    1
    27    46    44    1
    28    44    27    1
    29    44     3    1
    30    29    27    1
    31    38    36    1
    32    27     4    1
    33    27    28    1
    34     3    36    1
    35    11    14   ar
    36    11    10   ar
    37    15    14    1
    38    36    37    1
    39    36    30    1
    40     4    10    1
    41     4    30    1
    42    14    16   ar
    43    10     5   ar
    44    30    31    1
    45    30    32    1
    46    16    17    1
    47    16    20   ar
    48     5    20   ar
    49    20    21    1
