@<TRIPOS>MOLECULE
1554641.cif
 40 42 0 0 0
SMALL
GASTEIGER

@<TRIPOS>ATOM
      1 C           6.0184    1.7322    6.6597 C.ar    1  LIG1        0.0595
      2 C           6.8353    1.0607    5.7235 C.ar    1  LIG1       -0.0385
      3 H           6.8164    1.3247    4.8108 H       1  LIG1        0.0637
      4 C           7.6644    0.0207    6.1177 C.ar    1  LIG1       -0.0599
      5 H           8.1980   -0.4196    5.4654 H       1  LIG1        0.0618
      6 C           7.7347   -0.3944    7.4441 C.ar    1  LIG1       -0.0598
      7 H           8.3045   -1.1101    7.7005 H       1  LIG1        0.0618
      8 C           6.9564    0.2574    8.3789 C.ar    1  LIG1       -0.0346
      9 H           6.9957   -0.0058    9.2903 H       1  LIG1        0.0637
     10 C           6.1105    1.3026    7.9938 C.ar    1  LIG1        0.1149
     11 C           3.9722    2.8811    8.4016 C.ar    1  LIG1        0.1149
     12 C           2.8739    3.2855    9.1719 C.ar    1  LIG1       -0.0346
     13 H           2.8264    3.0535   10.0912 H       1  LIG1        0.0637
     14 C           1.8571    4.0245    8.5904 C.ar    1  LIG1       -0.0598
     15 H           1.1086    4.3092    9.1027 H       1  LIG1        0.0618
     16 C           1.9572    4.3413    7.2358 C.ar    1  LIG1       -0.0599
     17 H           1.2683    4.8541    6.8304 H       1  LIG1        0.0618
     18 C           3.0266    3.9321    6.4681 C.ar    1  LIG1       -0.0385
     19 H           3.0538    4.1577    5.5452 H       1  LIG1        0.0637
     20 C           4.0810    3.1830    7.0327 C.ar    1  LIG1        0.0595
     21 C           5.3661    3.3589    4.9223 C.3     1  LIG1        0.0174
     22 H           6.3396    3.4099    4.7509 H       1  LIG1        0.0468
     23 H           5.0174    4.2859    4.9359 H       1  LIG1        0.0468
     24 C           4.7112    2.6151    3.7627 C.3     1  LIG1       -0.0368
     25 H           4.8915    1.6452    3.8476 H       1  LIG1        0.0280
     26 H           3.7314    2.7495    3.7944 H       1  LIG1        0.0280
     27 C           5.2512    3.1193    2.4284 C.3     1  LIG1       -0.0519
     28 H           6.2408    3.0904    2.4453 H       1  LIG1        0.0266
     29 H           4.9766    4.0616    2.3016 H       1  LIG1        0.0266
     30 C           4.7453    2.2865    1.2546 C.3     1  LIG1       -0.0559
     31 H           4.9493    1.3325    1.4235 H       1  LIG1        0.0263
     32 H           3.7615    2.3794    1.1921 H       1  LIG1        0.0263
     33 C           5.3698    2.7008   -0.0736 C.3     1  LIG1       -0.0653
     34 H           5.2166    3.6575   -0.2222 H       1  LIG1        0.0230
     35 H           4.9600    2.1881   -0.8009 H       1  LIG1        0.0230
     36 H           6.3337    2.5232   -0.0506 H       1  LIG1        0.0230
     37 N           5.1579    2.7626    6.2564 N.pl3   1  LIG1       -0.2971
     38 O           6.1718    3.2525    9.6954 O.2     1  LIG1       -0.1642
     39 O           4.8403    1.2629   10.2642 O.2     1  LIG1       -0.1642
     40 S           5.3123    2.1801    9.2549 S.O2    1  LIG1        0.0286
@<TRIPOS>BOND
     1    35    33    1
     2    34    33    1
     3    33    36    1
     4    33    30    1
     5    32    30    1
     6    30    31    1
     7    30    27    1
     8    29    27    1
     9    27    28    1
    10    27    24    1
    11    24    26    1
    12    24    25    1
    13    24    21    1
    14    22    21    1
    15     3     2    1
    16    21    23    1
    17    21    37    1
    18     5     4    1
    19    19    18    1
    20     2     4   ar
    21     2     1   ar
    22     4     6   ar
    23    37     1    1
    24    37    20    1
    25    18    20   ar
    26    18    16   ar
    27     1    10   ar
    28    17    16    1
    29    20    11   ar
    30    16    14   ar
    31     6     7    1
    32     6     8   ar
    33    10     8   ar
    34    10    40    1
    35     8     9    1
    36    11    12   ar
    37    11    40    1
    38    14    15    1
    39    14    12   ar
    40    12    13    1
    41    40    38    2
    42    40    39    2
