@<TRIPOS>MOLECULE
1554271.cif
 91 96 0 0 0
SMALL
GASTEIGER

@<TRIPOS>ATOM
      1 C           2.2802    9.6333   21.3015 C.3     1  LIG1        0.1595
      2 C           0.8639    9.3361   21.8529 C.3     1  LIG1        0.2055
      3 C           0.8079   10.3366   23.0655 C.3     1  LIG1        0.1485
      4 H           0.1102   11.0314   22.8917 H       1  LIG1        0.0775
      5 C           2.1956   11.0008   23.0936 C.3     1  LIG1        0.0184
      6 C           3.1978    9.8848   23.5074 C.3     1  LIG1        0.0141
      7 H           2.7356    9.3254   24.1941 H       1  LIG1        0.0344
      8 C           4.5034   10.3763   24.1449 C.3     1  LIG1        0.1556
      9 H           5.1544    9.6182   24.1060 H       1  LIG1        0.0713
     10 C           4.2556   10.6830   25.6248 C.2     1  LIG1        0.3361
     11 C           3.1194    7.4793   22.5724 C.3     1  LIG1       -0.0029
     12 H           3.3178    6.9489   21.7485 H       1  LIG1        0.0357
     13 C           1.6858    7.1476   22.9858 C.2     1  LIG1        0.0024
     14 C           3.3587    8.9806   22.2212 C.3     1  LIG1        0.0243
     15 C           4.0933    7.0017   23.6609 C.3     1  LIG1       -0.0445
     16 H           5.0231    7.0859   23.3325 H       1  LIG1        0.0272
     17 H           3.9982    7.5732   24.4643 H       1  LIG1        0.0272
     18 C           3.8184    5.5618   24.0317 C.3     1  LIG1       -0.0396
     19 H           4.4822    5.2740   24.7088 H       1  LIG1        0.0275
     20 H           3.9413    4.9961   23.2301 H       1  LIG1        0.0275
     21 C           2.4117    5.3297   24.5891 C.3     1  LIG1        0.0314
     22 C           1.3764    6.1913   23.8816 C.2     1  LIG1       -0.0424
     23 C          -0.0176    5.9009   24.3650 C.3     1  LIG1        0.0674
     24 H          -0.3692    5.1219   23.8642 H       1  LIG1        0.0423
     25 H          -0.5941    6.6772   24.1515 H       1  LIG1        0.0423
     26 C          -0.1270    5.6136   25.8423 C.2     1  LIG1        0.3118
     27 C           2.3386    5.7641   26.0775 C.3     1  LIG1        0.1399
     28 H           2.5786    6.7333   26.1335 H       1  LIG1        0.0795
     29 C           2.0822    3.8305   24.4424 C.3     1  LIG1       -0.0521
     30 H           1.2379    3.6352   24.8993 H       1  LIG1        0.0239
     31 H           2.8017    3.2975   24.8425 H       1  LIG1        0.0239
     32 H           1.9982    3.6053   23.4917 H       1  LIG1        0.0239
     33 C           4.7272    9.0856   21.5287 C.3     1  LIG1       -0.0549
     34 H           5.4280    8.7833   22.1438 H       1  LIG1        0.0237
     35 H           4.8945   10.0170   21.2765 H       1  LIG1        0.0237
     36 H           4.7310    8.5228   20.7248 H       1  LIG1        0.0237
     37 C           3.2254    5.0071   27.0159 C.ar    1  LIG1        0.0312
     38 C           4.4224    5.3946   27.4911 C.ar    1  LIG1        0.0984
     39 H           4.8412    6.2211   27.2824 H       1  LIG1        0.1033
     40 C           2.9856    3.7159   27.5923 C.ar    1  LIG1       -0.0172
     41 H           2.2223    3.1666   27.4587 H       1  LIG1        0.0653
     42 C           4.0506    3.4382   28.3559 C.ar    1  LIG1        0.0921
     43 H           4.1562    2.6407   28.8606 H       1  LIG1        0.1029
     44 C           2.1868   12.2927   23.8978 C.3     1  LIG1       -0.0556
     45 H           1.5179   12.9045   23.5258 H       1  LIG1        0.0236
     46 H           3.0726   12.7101   23.8557 H       1  LIG1        0.0236
     47 H           1.9642   12.0945   24.8311 H       1  LIG1        0.0236
     48 C           2.4349   11.1242   21.5867 C.3     1  LIG1        0.0003
     49 H           1.7466   11.6732   21.1343 H       1  LIG1        0.0312
     50 H           3.3398   11.4626   21.3703 H       1  LIG1        0.0312
     51 C           0.6062    7.9010   22.2991 C.2     1  LIG1        0.1985
     52 C           4.7356   12.0885   27.4436 C.3     1  LIG1        0.0817
     53 H           3.8082   12.3362   27.6435 H       1  LIG1        0.0661
     54 H           5.3288   12.8335   27.6748 H       1  LIG1        0.0661
     55 H           4.9827   11.2994   27.9677 H       1  LIG1        0.0661
     56 C           1.9508    8.2782   19.3203 C.2     1  LIG1        0.3103
     57 C           1.9320    8.4034   17.8203 C.3     1  LIG1        0.0509
     58 H           1.3508    9.1846   17.5939 H       1  LIG1        0.0408
     59 C           1.3212    7.1829   17.1730 C.3     1  LIG1       -0.0525
     60 H           1.8614    6.3943   17.3892 H       1  LIG1        0.0237
     61 H           1.2966    7.3065   16.2005 H       1  LIG1        0.0237
     62 H           0.4096    7.0560   17.5086 H       1  LIG1        0.0237
     63 C           3.3187    8.7020   17.2945 C.3     1  LIG1       -0.0525
     64 H           3.9174    7.9570   17.5114 H       1  LIG1        0.0237
     65 H           3.6557    9.5235   17.7105 H       1  LIG1        0.0237
     66 H           3.2820    8.8194   16.3228 H       1  LIG1        0.0237
     67 C          -0.6995    9.6894   24.8268 C.2     1  LIG1        0.3100
     68 C          -0.7095    9.1584   26.2453 C.3     1  LIG1        0.0508
     69 H          -0.0946    8.3708   26.2814 H       1  LIG1        0.0408
     70 C          -2.0946    8.6861   26.6502 C.3     1  LIG1       -0.0525
     71 H          -2.7062    9.4500   26.6738 H       1  LIG1        0.0237
     72 H          -2.0524    8.2723   27.5383 H       1  LIG1        0.0237
     73 H          -2.4188    8.0293   25.9999 H       1  LIG1        0.0237
     74 C          -0.1607   10.2229   27.1848 C.3     1  LIG1       -0.0525
     75 H          -0.7209   11.0252   27.1316 H       1  LIG1        0.0237
     76 H           0.7567   10.4470   26.9241 H       1  LIG1        0.0237
     77 H          -0.1644    9.8812   28.1042 H       1  LIG1        0.0237
     78 O           2.4150    9.4161   19.8854 O.3     1  LIG1       -0.4538
     79 O           1.6086    7.3096   19.9567 O.2     1  LIG1       -0.2505
     80 O          -0.1061    9.7024   20.8923 O.3     1  LIG1       -0.3741
     81 H          -0.7659    9.1858   20.9495 H       1  LIG1        0.2110
     82 O           0.5550    9.7105   24.3471 O.3     1  LIG1       -0.4571
     83 O          -1.6507   10.0604   24.1987 O.2     1  LIG1       -0.2505
     84 O           5.0731   11.4553   23.4255 O.3     1  LIG1       -0.3803
     85 H           5.9083   11.4377   23.5088 H       1  LIG1        0.2105
     86 O           3.6318    9.9521   26.3539 O.2     1  LIG1       -0.2479
     87 O           4.8616   11.7888   26.0326 O.3     1  LIG1       -0.4661
     88 O          -1.1793    5.4033   26.3829 O.2     1  LIG1       -0.2505
     89 O           0.9851    5.5960   26.6121 O.3     1  LIG1       -0.4554
     90 O           4.9560    4.4419   28.3123 O.2     1  LIG1       -0.4706
     91 O          -0.5229    7.4692   22.1165 O.2     1  LIG1       -0.2890
@<TRIPOS>BOND
     1    61    59    1
     2    66    63    1
     3    59    60    1
     4    59    62    1
     5    59    57    1
     6    63    64    1
     7    63    65    1
     8    63    57    1
     9    58    57    1
    10    57    56    1
    11    56    78    1
    12    56    79    2
    13    78     1    1
    14    36    33    1
    15    80    81    1
    16    80     2    1
    17    49    48    1
    18    35    33    1
    19     1    48    1
    20     1     2    1
    21     1    14    1
    22    50    48    1
    23    33    34    1
    24    33    14    1
    25    48     5    1
    26    12    11    1
    27     2    51    1
    28     2     3    1
    29    91    51    2
    30    14    11    1
    31    14     6    1
    32    51    13    1
    33    11    13    1
    34    11    15    1
    35     4     3    1
    36    13    22    2
    37     3     5    1
    38     3    82    1
    39     5     6    1
    40     5    44    1
    41    20    18    1
    42    16    15    1
    43    84    85    1
    44    84     8    1
    45    32    29    1
    46     6     8    1
    47     6     7    1
    48    45    44    1
    49    15    18    1
    50    15    17    1
    51    46    44    1
    52    24    23    1
    53    22    23    1
    54    22    21    1
    55    44    47    1
    56    18    21    1
    57    18    19    1
    58     9     8    1
    59     8    10    1
    60    25    23    1
    61    83    67    2
    62    82    67    1
    63    23    26    1
    64    29    21    1
    65    29    31    1
    66    29    30    1
    67    21    27    1
    68    67    68    1
    69    10    87    1
    70    10    86    2
    71    26    88    2
    72    26    89    1
    73    73    70    1
    74    87    52    1
    75    27    28    1
    76    27    89    1
    77    27    37    1
    78    68    69    1
    79    68    70    1
    80    68    74    1
    81    70    71    1
    82    70    72    1
    83    76    74    1
    84    37    38   ar
    85    37    40   ar
    86    75    74    1
    87    74    77    1
    88    39    38    1
    89    52    53    1
    90    52    54    1
    91    52    55    1
    92    41    40    1
    93    38    90   ar
    94    40    42   ar
    95    90    42   ar
    96    42    43    1
