@<TRIPOS>MOLECULE
C18 H12 Cl3 O P S3
 38 40 0 0 0
SMALL
GASTEIGER

@<TRIPOS>ATOM
      1 S           3.3141    4.5701   14.3126 S.3     1  LIG1       -0.0395
      2 CL          6.9377    8.4722   11.0339 Cl      1  LIG1       -0.0835
      3 P           4.5115    3.2980   15.4247 P.3     1  LIG1        0.2583
      4 S           5.3842    1.8364   14.2208 S.3     1  LIG1       -0.0395
      5 CL          0.4204    6.0978   20.5651 Cl      1  LIG1       -0.0835
      6 S           3.0829    2.2099   16.4587 S.3     1  LIG1       -0.0395
      7 CL          0.9998   -0.4797   10.4010 Cl      1  LIG1       -0.0835
      8 O           5.5701    3.9533   16.1940 O.2     1  LIG1       -0.2857
      9 C           4.4839    5.5609   13.3991 C.ar    1  LIG1        0.0165
     10 C           6.0106    7.3063   11.9473 C.ar    1  LIG1        0.0410
     11 C           4.2225    5.7569   12.0588 C.ar    1  LIG1       -0.0465
     12 H           3.5379    5.2824   11.6443 H       1  LIG1        0.0629
     13 C           5.5452    6.2219   14.0054 C.ar    1  LIG1       -0.0465
     14 H           5.7319    6.0831   14.9052 H       1  LIG1        0.0629
     15 C           4.9717    6.6505   11.3323 C.ar    1  LIG1       -0.0423
     16 H           4.7776    6.8092   10.4348 H       1  LIG1        0.0632
     17 C           6.3176    7.0834   13.2592 C.ar    1  LIG1       -0.0423
     18 H           7.0453    7.5128   13.6464 H       1  LIG1        0.0632
     19 C           4.0463    1.2544   13.1948 C.ar    1  LIG1        0.0165
     20 C           1.2074    5.1011   19.3722 C.ar    1  LIG1        0.0410
     21 C           2.4001    3.4441   17.5598 C.ar    1  LIG1        0.0165
     22 C           3.2002    0.2472   13.6278 C.ar    1  LIG1       -0.0465
     23 H           3.2806   -0.0868   14.4919 H       1  LIG1        0.0629
     24 C           2.2415   -0.2603   12.7841 C.ar    1  LIG1       -0.0423
     25 H           1.6573   -0.9205   13.0814 H       1  LIG1        0.0632
     26 C           2.1552    0.2177   11.4991 C.ar    1  LIG1        0.0410
     27 C           3.0436    3.7399   18.7436 C.ar    1  LIG1       -0.0465
     28 H           3.8799    3.3738   18.9206 H       1  LIG1        0.0629
     29 C           3.9238    1.7507   11.8995 C.ar    1  LIG1       -0.0465
     30 H           4.4806    2.4378   11.6102 H       1  LIG1        0.0629
     31 C           2.9863    1.2310   11.0483 C.ar    1  LIG1       -0.0423
     32 H           2.9073    1.5537   10.1807 H       1  LIG1        0.0632
     33 C           0.5728    4.8399   18.1832 C.ar    1  LIG1       -0.0423
     34 H          -0.2545    5.2225   17.9955 H       1  LIG1        0.0632
     35 C           1.1742    4.0071   17.2743 C.ar    1  LIG1       -0.0465
     36 H           0.7549    3.8223   16.4636 H       1  LIG1        0.0629
     37 C           2.4491    4.5754   19.6608 C.ar    1  LIG1       -0.0423
     38 H           2.8763    4.7827   20.4601 H       1  LIG1        0.0632
@<TRIPOS>BOND
     1    32    31    1
     2     7    26    1
     3    16    15    1
     4     2    10    1
     5    31    26   ar
     6    31    29   ar
     7    15    10   ar
     8    15    11   ar
     9    26    24   ar
    10    30    29    1
    11    12    11    1
    12    29    19   ar
    13    10    17   ar
    14    11     9   ar
    15    24    25    1
    16    24    22   ar
    17    19    22   ar
    18    19     4    1
    19    17    18    1
    20    17    13   ar
    21     9    13   ar
    22     9     1    1
    23    22    23    1
    24    13    14    1
    25     4     3    1
    26     1     3    1
    27     3     8    2
    28     3     6    1
    29     6    21    1
    30    36    35    1
    31    35    21   ar
    32    35    33   ar
    33    21    27   ar
    34    34    33    1
    35    33    20   ar
    36    27    28    1
    37    27    37   ar
    38    20    37   ar
    39    20     5    1
    40    37    38    1
