@<TRIPOS>MOLECULE
C20 H12, C8 H2 Cl2 N4
 24 24 0 0 0
SMALL
GASTEIGER

@<TRIPOS>ATOM
      1 CL          5.9592    6.9125    1.7193 Cl      1  LIG1       -0.0812
      2 N           4.8124    4.2940    2.2902 N.2     1  LIG1       -0.1698
      3 N           4.0002    1.9494    2.3658 N.1     1  LIG1       -0.1695
      4 C           2.4403    6.4160    0.9725 C.ar    2  LIG2       -0.0606
      5 C           1.9455    5.1480    0.8777 C.ar    2  LIG2       -0.0540
      6 C           1.3653    4.5149    1.9967 C.ar    2  LIG2       -0.0167
      7 C           0.8186    3.2132    1.9027 C.ar    2  LIG2       -0.0540
      8 C           0.2542    2.6209    2.9902 C.ar    2  LIG2       -0.0606
      9 C           0.2067    3.2845    4.2226 C.ar    2  LIG2       -0.0534
     10 C           0.7419    4.5571    4.3810 C.ar    2  LIG2       -0.0090
     11 C           1.3302    5.2009    3.2503 C.ar    2  LIG2       -0.0024
     12 C           1.8772    6.5195    3.3356 C.ar    2  LIG2       -0.0090
     13 C           2.4045    7.0991    2.1950 C.ar    2  LIG2       -0.0534
     14 C           5.4903    7.1869    4.3267 C.2     1  LIG1       -0.0398
     15 C           5.4110    6.3828    3.2568 C.2     1  LIG1        0.0693
     16 C           4.8703    5.0259    3.3699 C.2     1  LIG1        0.1220
     17 C           4.3542    3.0382    2.3936 C.1     1  LIG1        0.2057
     18 H           2.8028    6.8285    0.2216 H       2  LIG2        0.0618
     19 H           1.9918    4.6963    0.0658 H       2  LIG2        0.0624
     20 H           0.8459    2.7586    1.0919 H       2  LIG2        0.0624
     21 H          -0.1040    1.7666    2.9136 H       2  LIG2        0.0618
     22 H          -0.1908    2.8644    4.9506 H       2  LIG2        0.0624
     23 H           2.7432    7.9640    2.2415 H       2  LIG2        0.0624
     24 H           5.8302    8.0460    4.2226 H       1  LIG1        0.0633
@<TRIPOS>BOND
     1    19     5    1
     2    18     4    1
     3     5     4   ar
     4     5     6   ar
     5     4    13   ar
     6    20     7    1
     7     1    15    1
     8     7     6   ar
     9     7     8   ar
    10     6    11   ar
    11    13    23    1
    12    13    12   ar
    13     2    17    1
    14     2    16    2
    15     3    17    3
    16    21     8    1
    17     8     9   ar
    18    11    12   ar
    19    11    10   ar
    20    15    16    1
    21    15    14    2
    22     9    10   ar
    23     9    22    1
    24    24    14    1
