@<TRIPOS>MOLECULE
0.5(C40 H37 N4 O9), 0.5(C40 H38 N4 O9)
 181 195 0 0 0
SMALL
GASTEIGER

@<TRIPOS>ATOM
      1 O           9.4570   12.1599    8.3266 O.2     1  LIG1       -0.2737
      2 O           9.0109   14.6173    4.8264 O.3     1  LIG1       -0.4867
      3 O           5.7619   11.7239    4.6515 O.2     1  LIG1       -0.2742
      4 O          10.6230   11.0259    3.6338 O.2     1  LIG1       -0.2915
      5 O          10.5355   10.2058    9.9451 O.3     1  LIG1       -0.4440
      6 O           5.7192   14.7252    5.3247 O.2     1  LIG1       -0.3566
      7 O          11.5361    6.7964    2.3646 O.2     2  LIG2       -0.2737
      8 O          10.0353    7.9856    6.9942 O.2     2  LIG2       -0.2915
      9 O           7.0284    3.8791    3.4863 O.2     2  LIG2       -0.3566
     10 O           9.6844    4.2621    5.3164 O.3     2  LIG2       -0.4867
     11 O           6.5101    6.8679    3.8375 O.2     2  LIG2       -0.2742
     12 O           8.7711    9.3175   11.0557 O.2     1  LIG1       -0.2254
     13 O          10.5275    3.1239    1.4507 O.2     2  LIG2       -0.1260
     14 N           8.5547   10.1053    8.9156 N.am    1  LIG1       -0.1746
     15 O          11.5866    9.4097   -0.8028 O.3     2  LIG2       -0.4440
     16 N           6.2854    6.5946    1.5590 N.am    2  LIG2       -0.2706
     17 N           9.6401    2.2903    1.6523 N.pl3   2  LIG2        0.0617
     18 O           8.1393   15.7717    8.4759 O.2     1  LIG1       -0.1260
     19 N           5.0668   15.9969    5.2041 N.ar    1  LIG1       -0.0809
     20 O           9.6851    1.1266    1.2734 O.2     2  LIG2       -0.1260
     21 N          10.7566    8.5684    1.0776 N.am    2  LIG2       -0.1746
     22 N           6.4258    2.6102    3.2427 N.ar    2  LIG2       -0.0809
     23 N           7.5676   16.5638    7.7349 N.pl3   1  LIG1        0.0617
     24 N           4.4748   11.9515    6.5429 N.am    1  LIG1       -0.2658
     25 C           8.7193   11.2278    8.1021 C.2     1  LIG1        0.2407
     26 C           6.6788   14.7881    6.2360 C.ar    1  LIG1        0.1755
     27 C           7.1424    8.0206    8.9085 C.ar    1  LIG1       -0.0394
     28 H           7.4870    7.6817    9.7032 H       1  LIG1        0.0636
     29 C           9.9927    4.3838    6.6387 C.ar    2  LIG2        0.1314
     30 C           6.0234   12.5131    8.1268 C.ar    1  LIG1       -0.0086
     31 C           7.0511    9.7739    7.2259 C.ar    1  LIG1       -0.0091
     32 C          10.1867   12.0910    4.0182 C.2     1  LIG1        0.1733
     33 C           8.6966    8.9006    2.0632 C.ar    2  LIG2       -0.0091
     34 C           7.5521    9.2451    8.4062 C.ar    1  LIG1        0.0513
     35 C           6.4572   12.8705    9.3975 C.ar    1  LIG1       -0.0528
     36 H           7.3545   13.0631    9.5487 H       1  LIG1        0.0624
     37 C           4.2027   12.6744   10.1815 C.ar    1  LIG1       -0.0571
     38 H           3.5947   12.7225   10.8836 H       1  LIG1        0.0621
     39 C           6.7052   16.0616    6.7397 C.ar    1  LIG1        0.1910
     40 C           5.5391   12.9387   10.4447 C.ar    1  LIG1       -0.0500
     41 C           7.5630   13.5848    6.3963 C.3     1  LIG1        0.0789
     42 H           8.2131   13.7874    7.1010 H       1  LIG1        0.0431
     43 C          11.5470   13.4420    2.4108 C.ar    1  LIG1       -0.0448
     44 H          11.9031   12.6493    2.0807 H       1  LIG1        0.0628
     45 C           8.3448   13.3610    5.0967 C.3     1  LIG1        0.1211
     46 H           7.7235   13.1518    4.3682 H       1  LIG1        0.0747
     47 C          11.4832   10.2006   11.0974 C.3     1  LIG1        0.1068
     48 C           8.6033   10.9383    5.6341 C.3     1  LIG1       -0.0203
     49 H           9.2545   10.2320    5.7675 H       1  LIG1        0.0287
     50 H           8.0298   10.6779    4.8964 H       1  LIG1        0.0287
     51 C           5.6396   11.9705    5.8531 C.2     1  LIG1        0.2328
     52 C          10.5408   13.3763    3.3910 C.ar    1  LIG1        0.0597
     53 C           6.7815   12.3136    6.8308 C.3     1  LIG1        0.1051
     54 C           9.2812    9.8323   10.1080 C.2     1  LIG1        0.4143
     55 C          10.6599    7.5796    2.0791 C.2     2  LIG2        0.2407
     56 O           7.7204   17.7842    7.7797 O.2     1  LIG1       -0.1260
     57 C           6.9830    6.6303    2.7347 C.2     2  LIG2        0.2325
     58 C           6.1300    9.0441    6.4948 C.ar    1  LIG1       -0.0558
     59 H           5.8024    9.3710    5.6882 H       1  LIG1        0.0621
     60 C           4.6713   12.2620    7.8936 C.ar    1  LIG1        0.0409
     61 C           9.3370   10.5738    0.4225 C.ar    2  LIG2       -0.0394
     62 H           9.9361   10.9089   -0.2050 H       2  LIG2        0.0636
     63 C           9.0484    5.1570    3.2079 C.3     2  LIG2        0.0789
     64 H           9.9636    4.9937    2.8972 H       2  LIG2        0.0431
     65 C           9.3344   12.2283    5.2664 C.3     1  LIG1        0.0611
     66 H           9.9284   12.4586    6.0109 H       1  LIG1        0.0418
     67 C           9.1095    5.4360    4.7119 C.3     2  LIG2        0.1211
     68 H           8.2047    5.5798    5.0601 H       2  LIG2        0.0747
     69 C           8.2481    3.9058    2.9553 C.ar    2  LIG2        0.1755
     70 C          10.1182    5.6158    7.2666 C.ar    2  LIG2        0.0597
     71 C           9.9800   14.5534    3.8645 C.ar    1  LIG1        0.1314
     72 C           9.0939    5.5985   -1.3311 C.ar    2  LIG2       -0.0500
     73 C           3.7285   12.3385    8.9115 C.ar    1  LIG1       -0.0397
     74 H           2.8266   12.1754    8.7547 H       1  LIG1        0.0636
     75 C           7.7493   11.0825    6.9084 C.3     1  LIG1        0.0940
     76 C           7.5275    9.5929    2.3453 C.ar    2  LIG2       -0.0558
     77 H           6.9359    9.2769    2.9895 H       2  LIG2        0.0621
     78 O          12.5938    7.6034    0.0017 O.2     2  LIG2       -0.2254
     79 C          10.5799    3.2983    8.6878 C.ar    2  LIG2       -0.0553
     80 H          10.7416    2.5106    9.1540 H       2  LIG2        0.0621
     81 C           7.1192    6.2725    0.4756 C.ar    2  LIG2        0.0405
     82 C           9.4302    7.8954    4.2577 C.3     2  LIG2       -0.0203
     83 H          10.0315    8.6405    4.4137 H       2  LIG2        0.0287
     84 H           8.5643    8.1293    4.6269 H       2  LIG2        0.0287
     85 C           5.6763   16.7702    6.0461 C.ar    1  LIG1        0.1110
     86 C           9.4195    5.7424    0.0221 C.ar    2  LIG2       -0.0528
     87 H          10.2919    5.6079    0.3153 H       2  LIG2        0.0624
     88 C          10.0208    6.8835    6.4860 C.2     2  LIG2        0.1733
     89 C           6.7790    6.1318   -0.8581 C.ar    2  LIG2       -0.0397
     90 H           5.9044    6.2491   -1.1519 H       2  LIG2        0.0636
     91 C          12.0230   14.6352    1.9230 C.ar    1  LIG1       -0.0496
     92 C          10.2236    3.2258    7.3541 C.ar    2  LIG2       -0.0190
     93 H          10.1395    2.3969    6.9404 H       2  LIG2        0.0654
     94 C           7.7943    5.8097   -1.7319 C.ar    2  LIG2       -0.0571
     95 H           7.5919    5.7317   -2.6363 H       2  LIG2        0.0621
     96 C           8.4196    6.0891    0.9189 C.ar    2  LIG2       -0.0087
     97 C           8.4863    6.3696    2.4104 C.3     2  LIG2        0.1051
     98 C           9.5985    9.3907    1.1091 C.ar    2  LIG2        0.0513
     99 C          10.7020    4.4899    9.3443 C.ar    2  LIG2       -0.0496
    100 C           6.1980    7.3242    8.1743 C.ar    1  LIG1       -0.0600
    101 H           5.8901    6.5063    8.4930 H       1  LIG1        0.0618
    102 C           7.3050    1.9179    2.5846 C.ar    2  LIG2        0.1110
    103 C          12.7662   10.6755   10.4486 C.3     1  LIG1       -0.0253
    104 H          13.0335   10.0494    9.7717 H       1  LIG1        0.0268
    105 H          13.4554   10.7416   11.1135 H       1  LIG1        0.0268
    106 H          12.6228   11.5366   10.0495 H       1  LIG1        0.0268
    107 C           8.4741    2.6982    2.3625 C.ar    2  LIG2        0.1910
    108 C           9.2886    7.6692    2.7413 C.3     2  LIG2        0.0940
    109 C          10.4535    5.6728    8.6228 C.ar    2  LIG2       -0.0448
    110 H          10.5128    6.4960    9.0504 H       2  LIG2        0.0628
    111 C           5.7011    7.8106    6.9854 C.ar    1  LIG1       -0.0614
    112 H           5.0766    7.3152    6.5071 H       1  LIG1        0.0618
    113 C          11.4248   15.8164    2.4123 C.ar    1  LIG1       -0.0553
    114 H          11.7176   16.6376    2.0869 H       1  LIG1        0.0621
    115 C           7.2528   10.7657    1.6512 C.ar    2  LIG2       -0.0614
    116 H           6.4674   11.2334    1.8212 H       2  LIG2        0.0618
    117 C           8.1473   11.2367    0.7087 C.ar    2  LIG2       -0.0600
    118 H           7.9475   12.0212    0.2512 H       2  LIG2        0.0618
    119 C           9.9644    6.6626    4.9768 C.3     2  LIG2        0.0611
    120 H          10.8724    6.4841    4.6547 H       2  LIG2        0.0418
    121 C          11.7851    8.5359    0.0896 C.2     2  LIG2        0.4143
    122 C          12.4158    9.5323   -2.0315 C.3     2  LIG2        0.1068
    123 C          10.4206   15.7957    3.3583 C.ar    1  LIG1       -0.0190
    124 H          10.0389   16.5890    3.6579 H       1  LIG1        0.0654
    125 C          11.0100   11.1988   12.1029 C.3     1  LIG1       -0.0253
    126 H          10.7714   12.0144   11.6574 H       1  LIG1        0.0268
    127 H          11.7112   11.3730   12.7358 H       1  LIG1        0.0268
    128 H          10.2432   10.8501   12.5646 H       1  LIG1        0.0268
    129 C           5.2567   18.1995    6.1893 C.3     1  LIG1       -0.0168
    130 H           5.9086   18.7674    5.7722 H       1  LIG1        0.0294
    131 H           5.1880   18.4208    7.1206 H       1  LIG1        0.0294
    132 H           4.4043   18.3262    5.7661 H       1  LIG1        0.0294
    133 C           6.0067   13.2503   11.8448 C.3     1  LIG1       -0.0397
    134 H           6.0438   12.4402   12.3579 H       1  LIG1        0.0278
    135 H           5.3934   13.8631   12.2579 H       1  LIG1        0.0278
    136 H           6.8801   13.6475   11.8096 H       1  LIG1        0.0278
    137 C           4.8434    6.7693    1.5043 C.3     2  LIG2        0.0170
    138 H           4.6134    7.2626    0.7018 H       2  LIG2        0.0466
    139 H           4.5588    7.2963    2.2684 H       2  LIG2        0.0466
    140 C          11.6571    8.8157   11.6412 C.3     1  LIG1       -0.0253
    141 H          10.8173    8.4963   11.9773 H       1  LIG1        0.0268
    142 H          12.3028    8.8300   12.3509 H       1  LIG1        0.0268
    143 H          11.9640    8.2342   10.9410 H       1  LIG1        0.0268
    144 C           7.0000    0.4973    2.2107 C.3     2  LIG2       -0.0168
    145 H           6.1071    0.2780    2.4888 H       2  LIG2        0.0294
    146 H           7.6230   -0.0893    2.6470 H       2  LIG2        0.0294
    147 H           7.0738    0.3927    1.2600 H       2  LIG2        0.0294
    148 C          10.1805    5.2151   -2.3210 C.3     2  LIG2       -0.0397
    149 H          10.4586    5.9948   -2.8080 H       2  LIG2        0.0278
    150 H           9.8388    4.5604   -2.9341 H       2  LIG2        0.0278
    151 H          10.9310    4.8496   -1.8473 H       2  LIG2        0.0278
    152 C           3.1629   11.7047    5.9360 C.3     1  LIG1        0.0470
    153 H           2.7409   12.3531    5.4202 H       1  LIG1        0.0520
    154 C          11.1229    4.5555   10.7882 C.3     2  LIG2       -0.0397
    155 H          10.7040    3.8425   11.2768 H       2  LIG2        0.0278
    156 H          10.8563    5.3985   11.1616 H       2  LIG2        0.0278
    157 H          12.0769    4.4661   10.8481 H       2  LIG2        0.0278
    158 C          13.1416   14.7181    0.9236 C.3     1  LIG1       -0.0397
    159 H          13.9559   14.9550    1.3737 H       1  LIG1        0.0278
    160 H          12.9342   15.3865    0.2657 H       1  LIG1        0.0278
    161 H          13.2498   13.8677    0.4924 H       1  LIG1        0.0278
    162 C           4.1017    5.4586    1.5077 C.3     2  LIG2       -0.0489
    163 H           4.3167    4.9678    0.7104 H       2  LIG2        0.0245
    164 H           3.1569    5.6248    1.5356 H       2  LIG2        0.0245
    165 H           4.3598    4.9462    2.2774 H       2  LIG2        0.0245
    166 C          12.1117    8.3840   -2.8844 C.3     2  LIG2       -0.0253
    167 H          12.7757    7.7029   -2.7519 H       2  LIG2        0.0268
    168 H          12.1151    8.6591   -3.8039 H       2  LIG2        0.0268
    169 H          11.2469    8.0364   -2.6567 H       2  LIG2        0.0268
    170 C          13.9371    9.6515   -1.7300 C.3     2  LIG2       -0.0253
    171 H          14.0708   10.2511   -0.9928 H       2  LIG2        0.0268
    172 H          14.3908    9.9898   -2.5051 H       2  LIG2        0.0268
    173 H          14.2873    8.7858   -1.5064 H       2  LIG2        0.0268
    174 C          11.9120   10.7791   -2.6984 C.3     2  LIG2       -0.0253
    175 H          11.0066   10.6444   -2.9858 H       2  LIG2        0.0268
    176 H          12.4633   10.9806   -3.4574 H       2  LIG2        0.0268
    177 H          11.9451   11.5096   -2.0757 H       2  LIG2        0.0268
    178 C           2.5689   10.4562    6.1600 C.3     1  LIG1       -0.0443
    179 H           1.9671   10.2537    5.4398 H       1  LIG1        0.0248
    180 H           2.0817   10.4773    6.9872 H       1  LIG1        0.0248
    181 H           3.2498    9.7810    6.2072 H       1  LIG1        0.0248
@<TRIPOS>BOND
     1   168   166    1
     2   176   174    1
     3   175   174    1
     4   150   148    1
     5   166   167    1
     6   166   169    1
     7   166   122    1
     8   149   148    1
     9   174   177    1
    10   174   122    1
    11    95    94    1
    12   172   170    1
    13   148   151    1
    14   148    72    1
    15   122   170    1
    16   122    15    1
    17    94    72   ar
    18    94    89   ar
    19   170   173    1
    20   170   171    1
    21    72    86   ar
    22    90    89    1
    23    89    81   ar
    24    15   121    1
    25    62    61    1
    26    78   121    2
    27    86    87    1
    28    86    96   ar
    29   121    21   am
    30   118   117    1
    31   160   158    1
    32    61   117   ar
    33    61    98   ar
    34    81    96   ar
    35    81    16    1
    36   161   158    1
    37   138   137    1
    38   117   115   ar
    39   163   162    1
    40    96    97    1
    41   158   159    1
    42   158    91    1
    43    21    98    1
    44    21    55   am
    45    98    33   ar
    46   147   144    1
    47    20    17    2
    48    13    17    2
    49   137   162    1
    50   137    16    1
    51   137   139    1
    52   162   164    1
    53   162   165    1
    54    16    57   am
    55   115   116    1
    56   115    76   ar
    57    17   107    1
    58    91    43   ar
    59    91   113   ar
    60    33    76   ar
    61    33   108    1
    62    55     7    2
    63    55   108    1
    64    44    43    1
    65   114   113    1
    66   144   145    1
    67   144   102    1
    68   144   146    1
    69    76    77    1
    70   107   102   ar
    71   107    69   ar
    72    97    57    1
    73    97   108    1
    74    97    63    1
    75    43    52   ar
    76   113   123   ar
    77   102    22   ar
    78    57    11    2
    79   108    82    1
    80    64    63    1
    81    69    63    1
    82    69     9   ar
    83    63    67    1
    84    22     9   ar
    85   123   124    1
    86   123    71   ar
    87    52    71   ar
    88    52    32    1
    89     4    32    2
    90    71     2    1
    91    32    65    1
    92    82    83    1
    93    82    84    1
    94    82   119    1
    95    46    45    1
    96     3    51    2
    97   120   119    1
    98    67   119    1
    99    67    68    1
   100    67    10    1
   101     2    45    1
   102    50    48    1
   103   119    88    1
   104    45    65    1
   105    45    41    1
   106    19     6   ar
   107    19    85   ar
   108    65    48    1
   109    65    66    1
   110    10    29    1
   111     6    26   ar
   112   153   152    1
   113   179   178    1
   114    48    49    1
   115    48    75    1
   116    59    58    1
   117   132   129    1
   118   130   129    1
   119    51    24   am
   120    51    53    1
   121   152   178    1
   122   152    24    1
   123    85   129    1
   124    85    39   ar
   125   178   181    1
   126   178   180    1
   127   129   131    1
   128    26    41    1
   129    26    39   ar
   130    41    53    1
   131    41    42    1
   132    88     8    2
   133    88    70    1
   134    58   111   ar
   135    58    31   ar
   136   112   111    1
   137    24    60    1
   138    29    70   ar
   139    29    92   ar
   140    39    23    1
   141    53    75    1
   142    53    30    1
   143    75    31    1
   144    75    25    1
   145    93    92    1
   146   111   100   ar
   147    31    34   ar
   148    70   109   ar
   149    92    79   ar
   150    23    56    2
   151    23    18    2
   152    60    30   ar
   153    60    73   ar
   154    25     1    2
   155    25    14   am
   156    30    35   ar
   157   100   101    1
   158   100    27   ar
   159    34    27   ar
   160    34    14    1
   161   109   110    1
   162   109    99   ar
   163    79    80    1
   164    79    99   ar
   165    74    73    1
   166    27    28    1
   167    73    37   ar
   168    14    54   am
   169    99   154    1
   170    35    36    1
   171    35    40   ar
   172   104   103    1
   173     5    54    1
   174     5    47    1
   175   106   103    1
   176    54    12    2
   177    37    40   ar
   178    37    38    1
   179    40   133    1
   180   103    47    1
   181   103   105    1
   182   154   157    1
   183   154   156    1
   184   154   155    1
   185   143   140    1
   186    47   140    1
   187    47   125    1
   188   140   141    1
   189   140   142    1
   190   126   125    1
   191   136   133    1
   192   133   135    1
   193   133   134    1
   194   125   128    1
   195   125   127    1
