@<TRIPOS>MOLECULE
C16 H17 N O2 S
 74 78 0 0 0
SMALL
GASTEIGER

@<TRIPOS>ATOM
      1 S           5.9255    6.8258    5.2217 S.O2    1  LIG1        0.0286
      2 S          17.3539    6.8806    6.1898 S.O2    2  LIG2        0.0286
      3 O          18.5362    6.0708    6.0119 O.2     2  LIG2       -0.1642
      4 O           5.3635    5.9964    4.1886 O.2     1  LIG1       -0.1642
      5 O          17.2668    8.0907    5.3985 O.2     2  LIG2       -0.1642
      6 O           6.6399    8.0087    4.7886 O.2     1  LIG1       -0.1642
      7 N           6.3358    7.2905    8.1766 N.pl3   1  LIG1       -0.2971
      8 N          14.7204    7.3178    7.5852 N.pl3   2  LIG2       -0.2971
      9 C           6.9606    5.8946    6.2508 C.ar    1  LIG1        0.1149
     10 C          13.4147    7.8230    8.0577 C.3     2  LIG2        0.0174
     11 H          12.8064    7.8711    7.3030 H       2  LIG2        0.0468
     12 H          13.5324    8.7241    8.3985 H       2  LIG2        0.0468
     13 C           8.1527    5.6514    8.3141 C.ar    1  LIG1       -0.0385
     14 H           8.3090    5.8880    9.1990 H       1  LIG1        0.0637
     15 C          10.7901    6.6128   10.6370 C.3     2  LIG2       -0.0652
     16 H          10.7016    5.7108   10.3179 H       2  LIG2        0.0230
     17 H           9.9248    6.9549   10.8718 H       2  LIG2        0.0230
     18 H          11.3597    6.6241   11.4086 H       2  LIG2        0.0230
     19 C          17.1553    7.3253    7.8554 C.ar    2  LIG2        0.1149
     20 C          15.9144    5.9540    5.9331 C.ar    2  LIG2        0.1149
     21 C           8.9239    4.6655    7.7298 C.ar    1  LIG1       -0.0599
     22 H           9.6032    4.2668    8.2253 H       1  LIG1        0.0618
     23 C           4.7014    7.3282    6.3458 C.ar    1  LIG1        0.1149
     24 C           3.4248    7.5958    5.8608 C.ar    1  LIG1       -0.0346
     25 H           3.1952    7.3385    4.9966 H       1  LIG1        0.0637
     26 C           6.7574    7.8390    9.4785 C.3     1  LIG1        0.0174
     27 H           6.4126    8.7420    9.5595 H       1  LIG1        0.0468
     28 H           7.7256    7.8927    9.4924 H       1  LIG1        0.0468
     29 C          15.8630    7.6496    8.3169 C.ar    2  LIG2        0.0595
     30 C          13.5534    5.6674    6.2093 C.ar    2  LIG2       -0.0385
     31 H          12.7459    5.8927    6.6117 H       2  LIG2        0.0637
     32 C           4.1450    8.3414    8.4512 C.ar    1  LIG1       -0.0385
     33 H           4.3658    8.6025    9.3160 H       1  LIG1        0.0637
     34 C           5.0930    7.6533    7.6671 C.ar    1  LIG1        0.0595
     35 C           7.1322    6.3065    7.5947 C.ar    1  LIG1        0.0595
     36 C           7.7229    4.8795    5.6800 C.ar    1  LIG1       -0.0346
     37 H           7.5674    4.6231    4.8000 H       1  LIG1        0.0637
     38 C           6.5537    6.7231   13.1842 C.3     1  LIG1       -0.0652
     39 H           6.9914    5.8720   13.1049 H       1  LIG1        0.0230
     40 H           5.6026    6.5902   13.2250 H       1  LIG1        0.0230
     41 H           6.8503    7.1623   13.9850 H       1  LIG1        0.0230
     42 C           2.5030    8.2387    6.6545 C.ar    1  LIG1       -0.0598
     43 H           1.6447    8.4083    6.3418 H       1  LIG1        0.0618
     44 C          15.9369    4.9455    4.9606 C.ar    2  LIG2       -0.0346
     45 H          16.7368    4.7136    4.5472 H       2  LIG2        0.0637
     46 C          13.5779    4.6863    5.2435 C.ar    2  LIG2       -0.0599
     47 H          12.7823    4.2706    5.0013 H       2  LIG2        0.0618
     48 C          14.7660    4.2961    4.6175 C.ar    2  LIG2       -0.0598
     49 H          14.7689    3.6146    3.9839 H       2  LIG2        0.0618
     50 C           6.2960    7.0294   10.6910 C.3     1  LIG1       -0.0371
     51 H           5.3286    7.0567   10.7486 H       1  LIG1        0.0280
     52 H           6.5662    6.1038   10.5832 H       1  LIG1        0.0280
     53 C          16.9190    8.5365   10.3041 C.ar    2  LIG2       -0.0599
     54 H          16.8400    8.9729   11.1215 H       2  LIG2        0.0618
     55 C           6.8968    7.5883   11.9707 C.3     1  LIG1       -0.0545
     56 H           6.5631    8.4875   12.1140 H       1  LIG1        0.0263
     57 H           7.8607    7.6383   11.8768 H       1  LIG1        0.0263
     58 C          18.2947    7.5327    8.6260 C.ar    2  LIG2       -0.0346
     59 H          19.1282    7.2707    8.3064 H       2  LIG2        0.0637
     60 C           8.7111    4.2518    6.4137 C.ar    1  LIG1       -0.0598
     61 H           9.2217    3.5703    6.0406 H       1  LIG1        0.0618
     62 C          11.3969    7.4761    9.5473 C.3     2  LIG2       -0.0545
     63 H          11.4697    8.3904    9.8638 H       2  LIG2        0.0263
     64 H          10.8142    7.4733    8.7714 H       2  LIG2        0.0263
     65 C          12.7787    6.9681    9.1444 C.3     2  LIG2       -0.0371
     66 H          13.3554    6.9644    9.9246 H       2  LIG2        0.0280
     67 H          12.7009    6.0558    8.8261 H       2  LIG2        0.0280
     68 C          18.1861    8.1321    9.8722 C.ar    2  LIG2       -0.0598
     69 H          18.9355    8.2622   10.4068 H       2  LIG2        0.0618
     70 C          14.7286    6.3347    6.5969 C.ar    2  LIG2        0.0595
     71 C          15.7869    8.3093    9.5634 C.ar    2  LIG2       -0.0385
     72 H          14.9620    8.5921    9.8856 H       2  LIG2        0.0637
     73 C           2.8855    8.6326    7.9441 C.ar    1  LIG1       -0.0599
     74 H           2.2800    9.1001    8.4734 H       1  LIG1        0.0618
@<TRIPOS>BOND
     1    49    48    1
     2     4     1    2
     3    45    44    1
     4    48    44   ar
     5    48    46   ar
     6     6     1    2
     7    37    36    1
     8    44    20   ar
     9    25    24    1
    10    47    46    1
    11     1     9    1
    12     1    23    1
    13    46    30   ar
    14     5     2    2
    15    36     9   ar
    16    36    60   ar
    17    24    23   ar
    18    24    42   ar
    19    20     2    1
    20    20    70   ar
    21     3     2    2
    22    61    60    1
    23     2    19    1
    24    30    70   ar
    25    30    31    1
    26     9    35   ar
    27    43    42    1
    28    23    34   ar
    29    60    21   ar
    30    70     8    1
    31    42    73   ar
    32    11    10    1
    33     8    10    1
    34     8    29    1
    35    35     7    1
    36    35    13   ar
    37    34     7    1
    38    34    32   ar
    39    21    22    1
    40    21    13   ar
    41    19    29   ar
    42    19    58   ar
    43    73    32   ar
    44    73    74    1
    45    10    12    1
    46    10    65    1
    47     7    26    1
    48    59    58    1
    49    13    14    1
    50    29    71   ar
    51    32    33    1
    52    58    68   ar
    53    64    62    1
    54    67    65    1
    55    65    62    1
    56    65    66    1
    57    26    28    1
    58    26    27    1
    59    26    50    1
    60    62    63    1
    61    62    15    1
    62    71    72    1
    63    71    53   ar
    64    68    53   ar
    65    68    69    1
    66    53    54    1
    67    16    15    1
    68    52    50    1
    69    15    17    1
    70    15    18    1
    71    50    51    1
    72    50    55    1
    73    57    55    1
    74    55    56    1
    75    55    38    1
    76    39    38    1
    77    38    40    1
    78    38    41    1
