@<TRIPOS>MOLECULE
1554064.cif
 59 61 0 0 0
SMALL
GASTEIGER

@<TRIPOS>ATOM
      1 I           5.9134   21.9929    8.5290 I       1  LIG1       -0.0377
      2 I           1.9872   16.3126    7.4192 I       1  LIG1       -0.0377
      3 I          -1.4634   18.3238    6.1414 I       2  LIG2       -0.0377
      4 I          -7.7141   17.4850    3.1907 I       2  LIG2       -0.0377
      5 P           8.1497   25.2925    9.5215 P.3     3  LIG3        0.1716
      6 F           6.2934   18.8975    9.2971 F       1  LIG1       -0.2013
      7 F           4.8474   16.7263    8.7888 F       1  LIG1       -0.2013
      8 F           1.5421   19.3984    6.7500 F       1  LIG1       -0.2013
      9 F           2.9972   21.5718    7.2250 F       1  LIG1       -0.2013
     10 F          -3.6286   20.4370    5.0516 F       2  LIG2       -0.2013
     11 F          -6.0214   20.1141    3.9395 F       2  LIG2       -0.2013
     12 F          -5.5479   15.4310    4.2731 F       2  LIG2       -0.2013
     13 F          -3.1897   15.7489    5.4349 F       2  LIG2       -0.2013
     14 O           7.6322   24.0927    8.7953 O.2     3  LIG3       -0.3065
     15 C           4.7103   20.3036    8.2528 C.ar    1  LIG1        0.0894
     16 C           5.1291   19.0485    8.6454 C.ar    1  LIG1        0.1754
     17 C           4.3738   17.9119    8.4069 C.ar    1  LIG1        0.1754
     18 C           3.1440   18.0001    7.7637 C.ar    1  LIG1        0.0894
     19 C           2.7209   19.2565    7.3845 C.ar    1  LIG1        0.1754
     20 C           3.4759   20.3870    7.6203 C.ar    1  LIG1        0.1754
     21 C          -3.3301   18.1036    5.2794 C.ar    2  LIG2        0.0894
     22 C          -4.0908   19.1860    4.8788 C.ar    2  LIG2        0.1754
     23 C          -5.3252   19.0213    4.2919 C.ar    2  LIG2        0.1754
     24 C          -5.8502   17.7665    4.0641 C.ar    2  LIG2        0.0894
     25 C          -5.0937   16.6785    4.4594 C.ar    2  LIG2        0.1754
     26 C          -3.8614   16.8430    5.0583 C.ar    2  LIG2        0.1754
     27 C           7.1884   26.7879    9.2202 C.ar    3  LIG3        0.0199
     28 C           7.0428   27.2321    7.8964 C.ar    3  LIG3       -0.0507
     29 H           7.4554   26.7541    7.1875 H       3  LIG3        0.0625
     30 C           6.3042   28.3595    7.6243 C.ar    3  LIG3       -0.0611
     31 H           6.2102   28.6560    6.7266 H       3  LIG3        0.0618
     32 C           5.6943   29.0689    8.6508 C.ar    3  LIG3       -0.0617
     33 H           5.1884   29.8485    8.4551 H       3  LIG3        0.0618
     34 C           5.8260   28.6349    9.9599 C.ar    3  LIG3       -0.0611
     35 H           5.4124   29.1188   10.6647 H       3  LIG3        0.0618
     36 C           6.5613   27.4968   10.2373 C.ar    3  LIG3       -0.0507
     37 H           6.6385   27.1965   11.1350 H       3  LIG3        0.0625
     38 C           9.8468   25.6887    9.0715 C.ar    3  LIG3        0.0199
     39 C          10.3512   26.9878    9.1492 C.ar    3  LIG3       -0.0507
     40 H           9.7777   27.7076    9.3837 H       3  LIG3        0.0625
     41 C          11.6944   27.2245    8.8852 C.ar    3  LIG3       -0.0611
     42 H          12.0445   28.1068    8.9429 H       3  LIG3        0.0618
     43 C          12.5202   26.1685    8.5355 C.ar    3  LIG3       -0.0617
     44 H          13.4422   26.3269    8.3653 H       3  LIG3        0.0618
     45 C          12.0153   24.8862    8.4297 C.ar    3  LIG3       -0.0611
     46 H          12.5852   24.1707    8.1724 H       3  LIG3        0.0618
     47 C          10.6857   24.6411    8.6990 C.ar    3  LIG3       -0.0507
     48 H          10.3424   23.7588    8.6293 H       3  LIG3        0.0625
     49 C           8.1387   25.0566   11.3159 C.ar    3  LIG3        0.0199
     50 C           8.9538   25.7965   12.1695 C.ar    3  LIG3       -0.0507
     51 H           9.5797   26.4134   11.8104 H       3  LIG3        0.0625
     52 C           8.8548   25.6340   13.5443 C.ar    3  LIG3       -0.0611
     53 H           9.4181   26.1362   14.1205 H       3  LIG3        0.0618
     54 C           7.9382   24.7426   14.0829 C.ar    3  LIG3       -0.0617
     55 H           7.8600   24.6487   15.0249 H       3  LIG3        0.0618
     56 C           7.1386   23.9915   13.2347 C.ar    3  LIG3       -0.0611
     57 H           6.5170   23.3723   13.5992 H       3  LIG3        0.0618
     58 C           7.2383   24.1364   11.8573 C.ar    3  LIG3       -0.0507
     59 H           6.6939   23.6088   11.2838 H       3  LIG3        0.0625
@<TRIPOS>BOND
     1     4    24    1
     2    11    23    1
     3    24    23   ar
     4    24    25   ar
     5    12    25    1
     6    23    22   ar
     7    25    26   ar
     8    22    10    1
     9    22    21   ar
    10    26    21   ar
    11    26    13    1
    12    21     3    1
    13    31    30    1
    14     8    19    1
    15    29    28    1
    16     9    20    1
    17    19    20   ar
    18    19    18   ar
    19     2    18    1
    20    20    15   ar
    21    30    28   ar
    22    30    32   ar
    23    18    17   ar
    24    28    27   ar
    25    46    45    1
    26    15     1    1
    27    15    16   ar
    28    44    43    1
    29    17    16   ar
    30    17     7    1
    31    45    43   ar
    32    45    47   ar
    33    33    32    1
    34    43    41   ar
    35    48    47    1
    36    16     6    1
    37    32    34   ar
    38    47    38   ar
    39    14     5    2
    40    41    42    1
    41    41    39   ar
    42    38    39   ar
    43    38     5    1
    44    39    40    1
    45    27     5    1
    46    27    36   ar
    47     5    49    1
    48    34    36   ar
    49    34    35    1
    50    36    37    1
    51    59    58    1
    52    49    58   ar
    53    49    50   ar
    54    51    50    1
    55    58    56   ar
    56    50    52   ar
    57    56    57    1
    58    56    54   ar
    59    52    54   ar
    60    52    53    1
    61    54    55    1
