@<TRIPOS>MOLECULE
C16 H18 O2 S
 37 38 0 0 0
SMALL
GASTEIGER

@<TRIPOS>ATOM
      1 S           2.1473    8.3067    4.5315 S.O2    1  LIG1       -0.0025
      2 O           1.8248    9.2470    5.5773 O.2     1  LIG1       -0.1693
      3 O           3.4875    7.7659    4.4732 O.2     1  LIG1       -0.1693
      4 C           0.7948   10.6783   -0.8525 C.3     1  LIG1       -0.0397
      5 H          -0.0164   10.2553   -1.1439 H       1  LIG1        0.0278
      6 H           1.4990   10.4828   -1.4750 H       1  LIG1        0.0278
      7 H           0.6620   11.6280   -0.8075 H       1  LIG1        0.0278
      8 C           1.1695   10.1606    0.5049 C.ar    1  LIG1       -0.0503
      9 C           2.3458    9.4444    0.6895 C.ar    1  LIG1       -0.0570
     10 H           2.9317    9.3325   -0.0233 H       1  LIG1        0.0621
     11 C           2.6565    8.8939    1.9249 C.ar    1  LIG1       -0.0366
     12 H           3.4427    8.4102    2.0379 H       1  LIG1        0.0637
     13 C           1.7886    9.0701    2.9853 C.ar    1  LIG1        0.0882
     14 C           1.0057    6.9533    4.7168 C.3     1  LIG1        0.0774
     15 H           1.0049    6.6878    5.6501 H       1  LIG1        0.0510
     16 H           0.1160    7.2816    4.5114 H       1  LIG1        0.0510
     17 C           1.2553    5.7034    3.8700 C.3     1  LIG1        0.0011
     18 H           2.1672    5.3928    4.0500 H       1  LIG1        0.0362
     19 C           1.1220    5.9273    2.3801 C.ar    1  LIG1       -0.0430
     20 C           2.0942    5.4403    1.5147 C.ar    1  LIG1       -0.0583
     21 H           2.8401    5.0042    1.8595 H       1  LIG1        0.0620
     22 C           1.9641    5.5978    0.1477 C.ar    1  LIG1       -0.0615
     23 H           2.6180    5.2578   -0.4202 H       1  LIG1        0.0618
     24 C           0.8672    6.2588   -0.3845 C.ar    1  LIG1       -0.0617
     25 H           0.7894    6.3733   -1.3044 H       1  LIG1        0.0618
     26 C           0.0110    6.5676    1.8358 C.ar    1  LIG1       -0.0583
     27 H          -0.6584    6.8797    2.4010 H       1  LIG1        0.0620
     28 C          -0.1138    6.7481    0.4680 C.ar    1  LIG1       -0.0615
     29 H          -0.8520    7.1954    0.1214 H       1  LIG1        0.0618
     30 C           0.3292   10.3635    1.6030 C.ar    1  LIG1       -0.0570
     31 H          -0.4441   10.8698    1.4997 H       1  LIG1        0.0621
     32 C           0.6283    9.8240    2.8393 C.ar    1  LIG1       -0.0366
     33 H           0.0619    9.9629    3.5635 H       1  LIG1        0.0637
     34 C           0.2821    4.6065    4.3235 C.3     1  LIG1       -0.0569
     35 H          -0.6204    4.9214    4.2316 H       1  LIG1        0.0236
     36 H           0.4522    4.3871    5.2424 H       1  LIG1        0.0236
     37 H           0.4049    3.8250    3.7797 H       1  LIG1        0.0236
@<TRIPOS>BOND
     1     6     4    1
     2    25    24    1
     3     5     4    1
     4     4     7    1
     5     4     8    1
     6    23    22    1
     7    24    22   ar
     8    24    28   ar
     9    10     9    1
    10    29    28    1
    11    22    20   ar
    12    28    26   ar
    13     8     9   ar
    14     8    30   ar
    15     9    11   ar
    16    31    30    1
    17    20    21    1
    18    20    19   ar
    19    30    32   ar
    20    26    19   ar
    21    26    27    1
    22    11    12    1
    23    11    13   ar
    24    19    17    1
    25    32    13   ar
    26    32    33    1
    27    13     1    1
    28    37    34    1
    29    17    18    1
    30    17    34    1
    31    17    14    1
    32    35    34    1
    33    34    36    1
    34     3     1    2
    35    16    14    1
    36     1    14    1
    37     1     2    2
    38    14    15    1
