@<TRIPOS>MOLECULE
C30 H31 N O7 S
 70 74 0 0 0
SMALL
GASTEIGER

@<TRIPOS>ATOM
      1 S           2.6154   12.5077    3.7050 S.O2    1  LIG1        0.0629
      2 O           6.5690   10.6359    3.1479 O.3     1  LIG1       -0.3610
      3 O           4.7490    8.6030    4.0188 O.3     1  LIG1       -0.4631
      4 O           4.3247   10.3929    5.2535 O.2     1  LIG1       -0.2479
      5 O           2.6779    8.8401    2.2246 O.2     1  LIG1       -0.2479
      6 O           2.8225   10.7089    1.0985 O.3     1  LIG1       -0.4631
      7 O           2.1846   13.5796    2.9103 O.2     1  LIG1       -0.1528
      8 O           1.8142   11.3756    3.8506 O.2     1  LIG1       -0.1528
      9 N           4.0138   11.9770    3.1076 N.3     1  LIG1       -0.1389
     10 C           3.3394   15.0309    9.0505 C.3     1  LIG1       -0.0397
     11 H           4.2072   14.8292    9.4053 H       1  LIG1        0.0278
     12 H           2.6646   14.7075    9.6520 H       1  LIG1        0.0278
     13 H           3.2478   15.9814    8.9471 H       1  LIG1        0.0278
     14 C           3.1811   14.3729    7.7299 C.ar    1  LIG1       -0.0503
     15 C           2.7068   13.1007    7.5887 C.ar    1  LIG1       -0.0570
     16 H           2.4607   12.6264    8.3503 H       1  LIG1        0.0621
     17 C           2.5817   12.4985    6.3728 C.ar    1  LIG1       -0.0351
     18 H           2.2712   11.6242    6.3074 H       1  LIG1        0.0637
     19 C           2.9139   13.1886    5.2737 C.ar    1  LIG1        0.1056
     20 C           3.3830   14.4595    5.3943 C.ar    1  LIG1       -0.0351
     21 H           3.6098   14.9413    4.6321 H       1  LIG1        0.0637
     22 C           3.5222   15.0293    6.6193 C.ar    1  LIG1       -0.0570
     23 H           3.8618   15.8934    6.6857 H       1  LIG1        0.0621
     24 C           6.6153   16.1715    3.7546 C.ar    1  LIG1       -0.0617
     25 H           7.0368   16.9123    4.1282 H       1  LIG1        0.0618
     26 C           5.5505   16.3297    2.9628 C.ar    1  LIG1       -0.0615
     27 H           5.2336   17.1856    2.7795 H       1  LIG1        0.0618
     28 C           4.9207   15.2358    2.4191 C.ar    1  LIG1       -0.0570
     29 H           4.1841   15.3586    1.8644 H       1  LIG1        0.0621
     30 C           5.3635   13.9700    2.6827 C.ar    1  LIG1       -0.0285
     31 C           6.4518   13.8242    3.4797 C.ar    1  LIG1       -0.0570
     32 H           6.7756   12.9728    3.6665 H       1  LIG1        0.0621
     33 C           7.0745   14.9170    4.0083 C.ar    1  LIG1       -0.0615
     34 H           7.8228   14.8026    4.5487 H       1  LIG1        0.0618
     35 C           4.6503   12.7950    2.0935 C.3     1  LIG1        0.0617
     36 H           3.9623   13.1226    1.4779 H       1  LIG1        0.0531
     37 C           5.5043   11.7871    1.3699 C.3     1  LIG1        0.0048
     38 H           5.1266   11.6040    0.4946 H       1  LIG1        0.0316
     39 H           6.3982   12.1414    1.2476 H       1  LIG1        0.0316
     40 C           5.5634   10.5317    2.1664 C.3     1  LIG1        0.1376
     41 C           5.8999    9.2934    1.4071 C.ar    1  LIG1       -0.0075
     42 C           5.3177    8.7464    0.2944 C.ar    1  LIG1       -0.0554
     43 H           4.5827    9.1560   -0.1010 H       1  LIG1        0.0621
     44 C           5.8282    7.5955   -0.2267 C.ar    1  LIG1       -0.0614
     45 H           5.4317    7.2121   -0.9762 H       1  LIG1        0.0618
     46 C           6.9024    7.0093    0.3325 C.ar    1  LIG1       -0.0614
     47 H           7.2377    6.2195   -0.0258 H       1  LIG1        0.0618
     48 C           7.5019    7.5674    1.4227 C.ar    1  LIG1       -0.0560
     49 H           8.2514    7.1675    1.8009 H       1  LIG1        0.0621
     50 C           6.9934    8.7180    1.9548 C.ar    1  LIG1       -0.0159
     51 C           7.4470    9.5246    3.0991 C.3     1  LIG1        0.0743
     52 H           8.2825    9.8739    3.0074 H       1  LIG1        0.0610
     53 H           7.3928    9.0266    3.9473 H       1  LIG1        0.0610
     54 C           4.2270   10.5536    2.9065 C.3     1  LIG1        0.2682
     55 C           3.1402    9.8993    2.0657 C.2     1  LIG1        0.3438
     56 C           1.7662   10.3063    0.2256 C.3     1  LIG1        0.0897
     57 H           2.1253    9.8004   -0.5204 H       1  LIG1        0.0694
     58 H           1.1371    9.7435    0.7025 H       1  LIG1        0.0694
     59 C           1.1321   11.4400   -0.2350 C.3     1  LIG1       -0.0306
     60 H           0.3829   11.1881   -0.7801 H       1  LIG1        0.0262
     61 H           1.7464   11.9611   -0.7566 H       1  LIG1        0.0262
     62 H           0.8242   11.9605    0.5110 H       1  LIG1        0.0262
     63 C           4.4158    9.8563    4.2135 C.2     1  LIG1        0.3438
     64 C           5.1115    7.8562    5.1735 C.3     1  LIG1        0.0897
     65 H           4.3530    7.7705    5.7717 H       1  LIG1        0.0694
     66 H           5.8322    8.2983    5.6495 H       1  LIG1        0.0694
     67 C           5.5433    6.5328    4.7026 C.3     1  LIG1       -0.0306
     68 H           6.2570    6.6366    4.0683 H       1  LIG1        0.0262
     69 H           4.8052    6.0857    4.2832 H       1  LIG1        0.0262
     70 H           5.8509    6.0134    5.4486 H       1  LIG1        0.0262
@<TRIPOS>BOND
     1    45    44    1
     2    60    59    1
     3    61    59    1
     4    57    56    1
     5    59    56    1
     6    59    62    1
     7    44    42   ar
     8    44    46   ar
     9    43    42    1
    10    47    46    1
    11    56    58    1
    12    56     6    1
    13    42    41   ar
    14    46    48   ar
    15    38    37    1
    16     6    55    1
    17    39    37    1
    18    37    35    1
    19    37    40    1
    20    41    50   ar
    21    41    40    1
    22    48    49    1
    23    48    50   ar
    24    36    35    1
    25    29    28    1
    26    50    51    1
    27    55     5    2
    28    55    54    1
    29    35    30    1
    30    35     9    1
    31    40    54    1
    32    40     2    1
    33    28    30   ar
    34    28    26   ar
    35    30    31   ar
    36    27    26    1
    37    54     9    1
    38    54    63    1
    39     7     1    2
    40    26    24   ar
    41    52    51    1
    42    51     2    1
    43    51    53    1
    44     9     1    1
    45    31    32    1
    46    31    33   ar
    47     1     8    2
    48     1    19    1
    49    24    33   ar
    50    24    25    1
    51    33    34    1
    52     3    63    1
    53     3    64    1
    54    68    67    1
    55    63     4    2
    56    69    67    1
    57    21    20    1
    58    67    64    1
    59    67    70    1
    60    64    66    1
    61    64    65    1
    62    19    20   ar
    63    19    17   ar
    64    20    22   ar
    65    18    17    1
    66    17    15   ar
    67    22    23    1
    68    22    14   ar
    69    15    14   ar
    70    15    16    1
    71    14    10    1
    72    13    10    1
    73    10    11    1
    74    10    12    1
