@<TRIPOS>MOLECULE
1555015.cif
 34 34 0 0 0
SMALL
GASTEIGER

@<TRIPOS>ATOM
      1 O           0.2033   21.3759    5.3539 O.3     1  LIG1       -0.5061
      2 H           0.6679   21.9609    5.6917 H       1  LIG1        0.2922
      3 C           0.3069   21.4408    3.9936 C.ar    1  LIG1        0.1276
      4 O          -0.7448   18.2497    4.0044 O.3     1  LIG1       -0.3626
      5 C          -0.4701   20.5475    3.2560 C.ar    1  LIG1        0.0201
      6 C          -0.3811   20.5742    1.8761 C.ar    1  LIG1       -0.0500
      7 H          -0.9017   19.9803    1.3852 H       1  LIG1        0.0625
      8 O           1.2722   24.2181    4.9234 O.3     1  LIG1       -0.3626
      9 C           0.4506   21.4481    1.1934 C.ar    1  LIG1       -0.0496
     10 C           1.1531   22.3468    3.3426 C.ar    1  LIG1        0.0201
     11 C           1.2040   22.3269    1.9614 C.ar    1  LIG1       -0.0500
     12 H           1.7666   22.9271    1.5282 H       1  LIG1        0.0625
     13 C          -0.0339   18.0397    5.2138 C.3     1  LIG1        0.1085
     14 H           0.5020   18.8244    5.4084 H       1  LIG1        0.0697
     15 H           0.5686   17.2878    5.1026 H       1  LIG1        0.0697
     16 C          -1.3646   19.5384    3.9168 C.3     1  LIG1        0.0773
     17 H          -1.5893   19.8461    4.8084 H       1  LIG1        0.0611
     18 H          -2.1885   19.4627    3.4104 H       1  LIG1        0.0611
     19 C          -0.9265   17.7763    6.3439 C.1     1  LIG1       -0.0773
     20 C          -1.6564   17.5745    7.2252 C.1     1  LIG1       -0.1169
     21 H          -2.2405   17.4133    7.9314 H       1  LIG1        0.1229
     22 C           0.5539   21.4190   -0.3133 C.3     1  LIG1       -0.0397
     23 H           1.1738   22.0917   -0.6044 H       1  LIG1        0.0278
     24 H           0.8627   20.5552   -0.5962 H       1  LIG1        0.0278
     25 H          -0.3091   21.5917   -0.6967 H       1  LIG1        0.0278
     26 C           2.0216   23.2908    4.1179 C.3     1  LIG1        0.0773
     27 H           2.6099   22.7773    4.6929 H       1  LIG1        0.0611
     28 H           2.5763   23.7894    3.4971 H       1  LIG1        0.0611
     29 C           0.6030   25.2279    4.1679 C.3     1  LIG1        0.1085
     30 H          -0.0328   25.6842    4.7416 H       1  LIG1        0.0697
     31 H           0.1064   24.8092    3.4479 H       1  LIG1        0.0697
     32 C           1.5260   26.2056    3.6059 C.1     1  LIG1       -0.0773
     33 C           2.2529   27.0143    3.1927 C.1     1  LIG1       -0.1169
     34 H           2.8335   27.6610    2.8625 H       1  LIG1        0.1229
@<TRIPOS>BOND
     1    25    22    1
     2    23    22    1
     3    24    22    1
     4    22     9    1
     5     9     6   ar
     6     9    11   ar
     7     7     6    1
     8    12    11    1
     9     6     5   ar
    10    11    10   ar
    11    34    33    1
    12    33    32    3
    13     5    16    1
    14     5     3   ar
    15    10     3   ar
    16    10    26    1
    17    18    16    1
    18    31    29    1
    19    28    26    1
    20    32    29    1
    21    16     4    1
    22    16    17    1
    23     3     1    1
    24     4    13    1
    25    26    27    1
    26    26     8    1
    27    29    30    1
    28    29     8    1
    29    15    13    1
    30    13    14    1
    31    13    19    1
    32     1     2    1
    33    19    20    3
    34    20    21    1
