@<TRIPOS>MOLECULE
0.2(C10 H9 F3 N2 O)
 25 26 0 0 0
SMALL
GASTEIGER

@<TRIPOS>ATOM
      1 O          -3.5364   -5.4328   -0.3007 O.2     1  LIG1       -0.2528
      2 N          -4.6150   -6.6199    1.3358 N.am    1  LIG1       -0.2807
      3 H          -5.3724   -6.2155    1.2891 H       1  LIG1        0.1514
      4 F          -6.3376   -8.8478    1.5614 F       1  LIG1       -0.1680
      5 C          -4.8934   -7.5579    3.6223 C.ar    1  LIG1       -0.0140
      6 F          -4.6115   -9.1840    0.3502 F       1  LIG1       -0.1680
      7 N          -2.4913   -6.9996    1.0039 N.am    1  LIG1       -0.2967
      8 H          -1.7140   -6.9584    0.6388 H       1  LIG1        0.1503
      9 F          -4.7592  -10.0822    2.2886 F       1  LIG1       -0.1680
     10 C          -2.8047   -7.8521    2.1215 C.3     1  LIG1        0.0471
     11 H          -2.3785   -7.5362    2.9339 H       1  LIG1        0.0490
     12 H          -2.5285   -8.7668    1.9528 H       1  LIG1        0.0490
     13 C          -3.5364   -6.2808    0.5963 C.2     1  LIG1        0.3006
     14 C          -4.3566   -7.7410    2.2182 C.3     1  LIG1        0.1718
     15 C          -5.9828   -6.7348    3.8638 C.ar    1  LIG1       -0.0562
     16 H          -6.3654   -6.2620    3.1596 H       1  LIG1        0.0621
     17 C          -5.0084   -8.9709    1.6018 C.3     1  LIG1        0.4163
     18 C          -4.8735   -8.0975    5.9644 C.ar    1  LIG1       -0.0614
     19 H          -4.4908   -8.5559    6.6769 H       1  LIG1        0.0618
     20 C          -6.5046   -6.6064    5.1328 C.ar    1  LIG1       -0.0614
     21 H          -7.2363   -6.0511    5.2788 H       1  LIG1        0.0618
     22 C          -4.3402   -8.2370    4.6910 C.ar    1  LIG1       -0.0562
     23 H          -3.6064   -8.7916    4.5558 H       1  LIG1        0.0621
     24 C          -5.9514   -7.2938    6.1783 C.ar    1  LIG1       -0.0617
     25 H          -6.3111   -7.2120    7.0326 H       1  LIG1        0.0618
@<TRIPOS>BOND
     1     1    13    2
     2     6    17    1
     3    13     7   am
     4    13     2   am
     5     8     7    1
     6     7    10    1
     7     3     2    1
     8     2    14    1
     9     4    17    1
    10    17    14    1
    11    17     9    1
    12    12    10    1
    13    10    14    1
    14    10    11    1
    15    14     5    1
    16    16    15    1
    17     5    15   ar
    18     5    22   ar
    19    15    20   ar
    20    23    22    1
    21    22    18   ar
    22    20    21    1
    23    20    24   ar
    24    18    24   ar
    25    18    19    1
    26    24    25    1
