@<TRIPOS>MOLECULE
C24 H32 O3
 59 62 0 0 0
SMALL
GASTEIGER

@<TRIPOS>ATOM
      1 O           4.5723    7.0257    6.3433 O.2     1  LIG1       -0.2924
      2 O           1.6559    4.4430    3.0457 O.2     1  LIG1       -0.2968
      3 O          -0.3943    0.1466    1.2418 O.2     1  LIG1       -0.2927
      4 C           0.1604   -2.1639    1.0594 C.3     1  LIG1       -0.0017
      5 H          -0.8053   -2.2804    0.9412 H       1  LIG1        0.0309
      6 H           0.4725   -2.7408    1.7872 H       1  LIG1        0.0309
      7 H           0.6226   -2.4068    0.2297 H       1  LIG1        0.0309
      8 C           0.4565   -0.7204    1.3978 C.2     1  LIG1        0.1564
      9 C           1.8127   -0.3777    1.8846 C.2     1  LIG1       -0.0023
     10 C           2.3522    1.0400    2.0499 C.3     1  LIG1        0.0085
     11 C           3.5183    0.7990    3.0642 C.3     1  LIG1       -0.0150
     12 C           4.5029    1.9793    3.0088 C.3     1  LIG1       -0.0216
     13 H           4.8580    2.0087    2.0729 H       1  LIG1        0.0316
     14 C           5.7254    1.7567    3.9365 C.3     1  LIG1       -0.0451
     15 H           5.4131    1.3695    4.7929 H       1  LIG1        0.0271
     16 H           6.3360    1.1023    3.5127 H       1  LIG1        0.0271
     17 C           6.5001    3.0444    4.2262 C.3     1  LIG1       -0.0305
     18 H           7.2350    2.8546    4.8629 H       1  LIG1        0.0310
     19 H           6.8982    3.3890    3.3867 H       1  LIG1        0.0310
     20 C           5.5813    4.0778    4.8102 C.2     1  LIG1       -0.0584
     21 C           5.9057    5.2705    5.3495 C.2     1  LIG1       -0.0029
     22 C           7.2887    5.8587    5.4744 C.3     1  LIG1       -0.0183
     23 H           7.9347    5.2190    5.0562 H       1  LIG1        0.0345
     24 C           7.3700    7.1816    4.7041 C.3     1  LIG1       -0.0585
     25 H           7.0380    7.0489    3.7928 H       1  LIG1        0.0235
     26 H           8.3016    7.4840    4.6724 H       1  LIG1        0.0235
     27 H           6.8220    7.8569    5.1570 H       1  LIG1        0.0235
     28 C           7.7067    6.0676    6.9268 C.3     1  LIG1       -0.0585
     29 H           7.1000    6.7095    7.3531 H       1  LIG1        0.0235
     30 H           8.6224    6.4152    6.9554 H       1  LIG1        0.0235
     31 H           7.6654    5.2136    7.4064 H       1  LIG1        0.0235
     32 C           4.6614    5.9570    5.7511 C.2     1  LIG1        0.1600
     33 C           3.4798    5.1247    5.2811 C.3     1  LIG1        0.0176
     34 H           2.9774    5.5999    4.5716 H       1  LIG1        0.0351
     35 H           2.8654    4.9328    6.0338 H       1  LIG1        0.0351
     36 C           4.0927    3.8211    4.7335 C.3     1  LIG1        0.0001
     37 H           3.8637    3.0722    5.3559 H       1  LIG1        0.0359
     38 C           3.7830    3.3668    3.2606 C.3     1  LIG1        0.0364
     39 C           4.3566    4.4289    2.2869 C.3     1  LIG1       -0.0520
     40 H           3.9510    4.3135    1.4034 H       1  LIG1        0.0239
     41 H           5.3282    4.3180    2.2186 H       1  LIG1        0.0239
     42 H           4.1536    5.3255    2.6247 H       1  LIG1        0.0239
     43 C           2.2508    3.3802    2.9967 C.2     1  LIG1        0.1409
     44 C           1.4539    2.1340    2.6090 C.3     1  LIG1        0.0164
     45 H           0.9776    1.7902    3.4063 H       1  LIG1        0.0350
     46 H           0.7759    2.3779    1.9300 H       1  LIG1        0.0350
     47 C           4.0593   -0.5828    2.6015 C.3     1  LIG1       -0.0276
     48 H           4.7158   -0.4875    1.8656 H       1  LIG1        0.0313
     49 H           4.4768   -1.0779    3.3502 H       1  LIG1        0.0313
     50 C           2.7904   -1.2617    2.1267 C.2     1  LIG1       -0.0764
     51 H           2.6986   -2.2010    2.0141 H       1  LIG1        0.0576
     52 C           2.9504    0.5873    4.4903 C.3     1  LIG1       -0.0582
     53 H           3.6548    0.2356    5.0730 H       1  LIG1        0.0236
     54 H           2.2070   -0.0506    4.4539 H       1  LIG1        0.0236
     55 H           2.6295    1.4426    4.8433 H       1  LIG1        0.0236
     56 C           2.8217    1.4730    0.6378 C.3     1  LIG1       -0.0545
     57 H           2.0617    1.4508    0.0196 H       1  LIG1        0.0239
     58 H           3.5174    0.8594    0.3221 H       1  LIG1        0.0239
     59 H           3.1831    2.3833    0.6779 H       1  LIG1        0.0239
@<TRIPOS>BOND
     1    57    56    1
     2     7     4    1
     3    58    56    1
     4    56    59    1
     5    56    10    1
     6     5     4    1
     7     4     8    1
     8     4     6    1
     9     3     8    2
    10     8     9    1
    11    40    39    1
    12    48    47    1
    13     9    10    1
    14     9    50    2
    15    46    44    1
    16    51    50    1
    17    10    44    1
    18    10    11    1
    19    13    12    1
    20    50    47    1
    21    41    39    1
    22    39    42    1
    23    39    38    1
    24    47    11    1
    25    47    49    1
    26    44    43    1
    27    44    45    1
    28    43     2    2
    29    43    38    1
    30    12    11    1
    31    12    38    1
    32    12    14    1
    33    11    52    1
    34    38    36    1
    35    19    17    1
    36    16    14    1
    37    25    24    1
    38    14    17    1
    39    14    15    1
    40    17    20    1
    41    17    18    1
    42    54    52    1
    43    52    55    1
    44    52    53    1
    45    34    33    1
    46    26    24    1
    47    24    27    1
    48    24    22    1
    49    36    20    1
    50    36    33    1
    51    36    37    1
    52    20    21    2
    53    23    22    1
    54    33    32    1
    55    33    35    1
    56    21    22    1
    57    21    32    1
    58    22    28    1
    59    32     1    2
    60    28    30    1
    61    28    29    1
    62    28    31    1
