@<TRIPOS>MOLECULE
7-methoxy-1-(4-methoxyphenyl)-9H-fluoren-9-one
 40 43 0 0 0
SMALL
GASTEIGER

@<TRIPOS>ATOM
      1 O           5.1172   -0.0430   20.4547 O.3     1  LIG1       -0.4951
      2 O           7.8578    1.7696   15.3281 O.2     1  LIG1       -0.2866
      3 O          10.0861    3.3561   10.5962 O.3     1  LIG1       -0.4951
      4 C           9.4114    2.5923   12.8227 C.ar    1  LIG1       -0.0085
      5 H           8.5043    2.7167   12.6608 H       1  LIG1        0.0661
      6 C           6.2254    0.1840   19.6918 C.ar    1  LIG1        0.1201
      7 C           9.9110    0.9199   17.6127 C.ar    1  LIG1       -0.0065
      8 C           8.6057    0.7148   18.2856 C.ar    1  LIG1       -0.0170
      9 C          10.0740    1.3029   16.2712 C.ar    1  LIG1        0.0377
     10 C           6.4266   -0.3476   18.4221 C.ar    1  LIG1       -0.0194
     11 H           5.7773   -0.8897   18.0367 H       1  LIG1        0.0654
     12 C           7.5946   -0.0694   17.7355 C.ar    1  LIG1       -0.0506
     13 H           7.7081   -0.4162   16.8811 H       1  LIG1        0.0625
     14 C          11.1015    0.6907   18.3356 C.ar    1  LIG1       -0.0533
     15 H          11.0379    0.4418   19.2285 H       1  LIG1        0.0624
     16 C           9.8699    2.1142   14.0388 C.ar    1  LIG1        0.0335
     17 C          12.1663    2.2092   13.3452 C.ar    1  LIG1       -0.0499
     18 H          13.0730    2.0916   13.5122 H       1  LIG1        0.0625
     19 C           8.3704    1.2569   19.5528 C.ar    1  LIG1       -0.0506
     20 H           9.0149    1.8036   19.9403 H       1  LIG1        0.0625
     21 C          10.3679    2.8795   11.8533 C.ar    1  LIG1        0.1208
     22 C           7.2067    1.0006   20.2409 C.ar    1  LIG1       -0.0194
     23 H           7.0751    1.3776   21.0819 H       1  LIG1        0.0654
     24 C          12.4917    1.1943   16.4437 C.ar    1  LIG1       -0.0533
     25 H          13.3343    1.2712   16.0577 H       1  LIG1        0.0624
     26 C          11.2168    1.9287   14.3132 C.ar    1  LIG1       -0.0061
     27 C           8.7681    3.8318   10.3497 C.3     1  LIG1        0.0788
     28 H           8.7324    4.2397    9.4817 H       1  LIG1        0.0660
     29 H           8.5315    4.4788   11.0168 H       1  LIG1        0.0660
     30 H           8.1508    3.0967   10.3832 H       1  LIG1        0.0660
     31 C          12.3476    0.8196   17.7774 C.ar    1  LIG1       -0.0606
     32 H          13.1032    0.6560   18.2935 H       1  LIG1        0.0618
     33 C           4.1573   -0.9794   19.9668 C.3     1  LIG1        0.0788
     34 H           3.7770   -0.6515   19.1476 H       1  LIG1        0.0660
     35 H           3.4628   -1.0941   20.6185 H       1  LIG1        0.0660
     36 H           4.5868   -1.8224   19.8035 H       1  LIG1        0.0660
     37 C           9.0674    1.7267   15.2374 C.2     1  LIG1        0.1950
     38 C          11.3558    1.4462   15.7133 C.ar    1  LIG1       -0.0058
     39 C          11.7181    2.6722   12.1177 C.ar    1  LIG1       -0.0193
     40 H          12.3402    2.8494   11.4495 H       1  LIG1        0.0654
@<TRIPOS>BOND
     1    28    27    1
     2    27    30    1
     3    27     3    1
     4    27    29    1
     5     3    21    1
     6    40    39    1
     7    21    39   ar
     8    21     4   ar
     9    39    17   ar
    10     5     4    1
    11     4    16   ar
    12    17    18    1
    13    17    26   ar
    14    16    26   ar
    15    16    37    1
    16    26    38    1
    17    37     2    2
    18    37     9    1
    19    38     9   ar
    20    38    24   ar
    21    25    24    1
    22     9     7   ar
    23    24    31   ar
    24    13    12    1
    25     7     8    1
    26     7    14   ar
    27    12     8   ar
    28    12    10   ar
    29    31    32    1
    30    31    14   ar
    31    11    10    1
    32     8    19   ar
    33    14    15    1
    34    10     6   ar
    35    34    33    1
    36    19    20    1
    37    19    22   ar
    38     6    22   ar
    39     6     1    1
    40    36    33    1
    41    33     1    1
    42    33    35    1
    43    22    23    1
