@<TRIPOS>MOLECULE
C25 H23 N O3 S
 53 57 0 0 0
SMALL
GASTEIGER

@<TRIPOS>ATOM
      1 S           0.7570    3.3780    9.0437 S.O2    1  LIG1        0.0776
      2 O           0.0695    4.5700    9.4241 O.2     1  LIG1       -0.1497
      3 O           0.1811    2.0999    9.3463 O.2     1  LIG1       -0.1497
      4 O           3.2932    5.0908    8.5130 O.3     1  LIG1       -0.4621
      5 N           2.2480    3.3619    9.8008 N.pl3   1  LIG1       -0.1646
      6 C           3.0671    4.6149    9.8477 C.3     1  LIG1        0.2257
      7 C           4.2462    4.4443    7.7448 C.ar    1  LIG1        0.1276
      8 C           5.1326    3.5116    8.2770 C.ar    1  LIG1        0.0017
      9 C           5.0552    3.1404    9.7415 C.3     1  LIG1        0.0153
     10 H           5.9547    2.9567   10.0851 H       1  LIG1        0.0397
     11 C           4.4297    4.2947   10.5182 C.3     1  LIG1        0.0299
     12 H           4.2509    3.9827   11.4302 H       1  LIG1        0.0367
     13 C           5.3185    5.5167   10.6096 C.3     1  LIG1       -0.0559
     14 H           5.3816    5.9315    9.7458 H       1  LIG1        0.0235
     15 H           6.1939    5.2545   10.9032 H       1  LIG1        0.0235
     16 H           4.9434    6.1393   11.2366 H       1  LIG1        0.0235
     17 C           4.1789    1.9423    9.9465 C.2     1  LIG1       -0.0605
     18 H           4.5530    1.0997   10.0656 H       1  LIG1        0.0591
     19 C           2.8708    2.0999    9.9563 C.2     1  LIG1        0.0160
     20 H           2.3333    1.3499   10.0701 H       1  LIG1        0.0796
     21 C           6.0667    2.9519    7.3990 C.ar    1  LIG1       -0.0545
     22 H           6.6859    2.3412    7.7273 H       1  LIG1        0.0622
     23 C           6.0943    3.2801    6.0654 C.ar    1  LIG1       -0.0613
     24 H           6.7170    2.8813    5.5017 H       1  LIG1        0.0618
     25 C           5.2067    4.1949    5.5666 C.ar    1  LIG1       -0.0583
     26 H           5.2312    4.4174    4.6636 H       1  LIG1        0.0619
     27 C           4.2713    4.7915    6.3976 C.ar    1  LIG1       -0.0195
     28 H           3.6692    5.4155    6.0605 H       1  LIG1        0.0654
     29 C           2.3453    5.7172   10.5886 C.ar    1  LIG1        0.0163
     30 C           1.7532    5.4419   11.8185 C.ar    1  LIG1       -0.0531
     31 H           1.7826    4.5760   12.1575 H       1  LIG1        0.0622
     32 C           1.1257    6.4295   12.5396 C.ar    1  LIG1       -0.0613
     33 H           0.7342    6.2248   13.3585 H       1  LIG1        0.0618
     34 C           1.0714    7.6985   12.0679 C.ar    1  LIG1       -0.0617
     35 H           0.6232    8.3560   12.5481 H       1  LIG1        0.0618
     36 C           1.6904    8.0157   10.8590 C.ar    1  LIG1       -0.0613
     37 H           1.6890    8.8930   10.5509 H       1  LIG1        0.0618
     38 C           2.3121    7.0151   10.1132 C.ar    1  LIG1       -0.0531
     39 H           2.7043    7.2204    9.2949 H       1  LIG1        0.0622
     40 C           1.0293    3.4317    7.3077 C.ar    1  LIG1        0.1088
     41 C           1.5856    2.3444    6.6631 C.ar    1  LIG1       -0.0348
     42 H           1.8497    1.5958    7.1475 H       1  LIG1        0.0637
     43 C           1.7471    2.3783    5.2924 C.ar    1  LIG1       -0.0570
     44 H           2.1284    1.6492    4.8584 H       1  LIG1        0.0621
     45 C           1.3481    3.4876    4.5515 C.ar    1  LIG1       -0.0503
     46 C           0.7836    4.5530    5.2146 C.ar    1  LIG1       -0.0570
     47 H           0.5048    5.2962    4.7289 H       1  LIG1        0.0621
     48 C           0.6220    4.5421    6.5878 C.ar    1  LIG1       -0.0348
     49 H           0.2438    5.2718    7.0226 H       1  LIG1        0.0637
     50 C           1.5462    3.5305    3.0500 C.3     1  LIG1       -0.0397
     51 H           2.4811    3.6196    2.8523 H       1  LIG1        0.0278
     52 H           1.0695    4.2808    2.6858 H       1  LIG1        0.0278
     53 H           1.2120    2.7198    2.6593 H       1  LIG1        0.0278
@<TRIPOS>BOND
     1    53    50    1
     2    52    50    1
     3    51    50    1
     4    50    45    1
     5    45    46   ar
     6    45    43   ar
     7    26    25    1
     8    47    46    1
     9    44    43    1
    10    46    48   ar
    11    43    41   ar
    12    24    23    1
    13    25    23   ar
    14    25    27   ar
    15    28    27    1
    16    23    21   ar
    17    27     7   ar
    18    48    49    1
    19    48    40   ar
    20    41    42    1
    21    41    40   ar
    22    40     1    1
    23    21    22    1
    24    21     8   ar
    25     7     8   ar
    26     7     4    1
    27     8     9    1
    28     4     6    1
    29     1     3    2
    30     1     2    2
    31     1     5    1
    32    39    38    1
    33     9    17    1
    34     9    10    1
    35     9    11    1
    36    14    13    1
    37     5     6    1
    38     5    19    1
    39     6    11    1
    40     6    29    1
    41    17    19    2
    42    17    18    1
    43    19    20    1
    44    38    29   ar
    45    38    36   ar
    46    11    13    1
    47    11    12    1
    48    37    36    1
    49    29    30   ar
    50    13    15    1
    51    13    16    1
    52    36    34   ar
    53    30    31    1
    54    30    32   ar
    55    34    32   ar
    56    34    35    1
    57    32    33    1
