@<TRIPOS>MOLECULE
C22 H16 O4
 84 92 0 0 0
SMALL
GASTEIGER

@<TRIPOS>ATOM
      1 O           4.1379    0.9681    8.5616 O.3     1  LIG1       -0.3421
      2 O           2.0230    1.6687    8.0478 O.3     1  LIG1       -0.3421
      3 C           3.5939    3.3274    8.4312 C.ar    1  LIG1        0.0376
      4 O           5.6629    5.0943    6.0906 O.2     1  LIG1       -0.4548
      5 C           4.9347    2.9158    6.0817 C.ar    1  LIG1        0.0361
      6 O           2.7697    0.7077   10.8629 O.2     1  LIG1       -0.2865
      7 C           3.2421    4.3882    9.2725 C.ar    1  LIG1       -0.0154
      8 C           4.8100    1.6637    5.3902 C.ar    1  LIG1       -0.0065
      9 C           4.8169    4.9343    7.1433 C.ar    1  LIG1        0.1367
     10 C           4.3510    3.6029    7.2683 C.ar    1  LIG1        0.0378
     11 C           3.1555    1.9326    8.8350 C.3     1  LIG1        0.2623
     12 C           2.4365    4.1564   10.4702 C.2     1  LIG1       -0.0506
     13 H           2.1033    4.8980   10.9230 H       1  LIG1        0.0625
     14 C           4.4738    5.9760    7.9478 C.ar    1  LIG1       -0.0181
     15 H           4.7885    6.8364    7.7860 H       1  LIG1        0.0655
     16 C           3.8673    0.6549    5.6734 C.ar    1  LIG1       -0.0533
     17 H           3.2739    0.7762    6.3795 H       1  LIG1        0.0624
     18 C           6.5326    3.6887    4.3585 C.ar    1  LIG1       -0.0181
     19 H           7.0696    4.3725    4.0294 H       1  LIG1        0.0655
     20 C           2.7046    1.7924   10.3195 C.2     1  LIG1        0.2197
     21 C           4.6708   -0.7234    3.8828 C.ar    1  LIG1       -0.0612
     22 H           4.6431   -1.5276    3.4168 H       1  LIG1        0.0618
     23 C           2.1516    2.9612   10.9497 C.2     1  LIG1       -0.0128
     24 H           1.5954    2.8754   11.6905 H       1  LIG1        0.0654
     25 C           5.7312    3.8776    5.4745 C.ar    1  LIG1        0.1369
     26 C           6.5035    2.4778    3.7694 C.ar    1  LIG1       -0.0505
     27 H           7.0581    2.3088    3.0436 H       1  LIG1        0.0625
     28 C           3.8022   -0.4949    4.9392 C.ar    1  LIG1       -0.0611
     29 H           3.1631   -1.1366    5.1525 H       1  LIG1        0.0618
     30 C           5.5631    0.2392    3.5357 C.ar    1  LIG1       -0.0540
     31 H           6.1346    0.0907    2.8183 H       1  LIG1        0.0624
     32 C           5.3463    1.1234    9.3026 C.3     1  LIG1        0.0405
     33 H           5.1972    0.8677   10.2153 H       1  LIG1        0.0525
     34 H           5.6266    2.0407    9.2682 H       1  LIG1        0.0525
     35 H           6.0284    0.5650    8.9215 H       1  LIG1        0.0525
     36 C           5.6421    1.4583    4.2375 C.ar    1  LIG1       -0.0171
     37 C           1.3666    0.3885    8.1999 C.3     1  LIG1        0.0405
     38 H           1.1036    0.2706    9.1151 H       1  LIG1        0.0525
     39 H           1.9717   -0.3134    7.9480 H       1  LIG1        0.0525
     40 H           0.5888    0.3588    7.6364 H       1  LIG1        0.0525
     41 C           3.6516    5.7055    9.0005 C.ar    1  LIG1       -0.0506
     42 H           3.3570    6.4008    9.5446 H       1  LIG1        0.0625
     43 O           9.4323    7.2901    6.2874 O.3     2  LIG2       -0.3421
     44 O          10.7862    6.5460    7.9769 O.3     2  LIG2       -0.3421
     45 C           9.6537    4.9244    6.7439 C.ar    2  LIG2        0.0376
     46 C          12.1158    6.4140    4.4567 C.ar    2  LIG2       -0.0065
     47 C           9.5581    6.3423    7.3192 C.3     2  LIG2        0.2623
     48 C          12.2375    7.4319    5.3749 C.ar    2  LIG2       -0.0533
     49 H          11.7912    7.3560    6.1876 H       2  LIG2        0.0624
     50 C           8.1915    7.2117    5.5808 C.3     2  LIG2        0.0405
     51 H           7.4737    7.4558    6.1683 H       2  LIG2        0.0525
     52 H           8.0578    6.3151    5.2670 H       2  LIG2        0.0525
     53 H           8.2102    7.8130    4.8322 H       2  LIG2        0.0525
     54 C          11.3865    5.2106    4.6285 C.ar    2  LIG2        0.0361
     55 C          10.4465    4.5886    5.5926 C.ar    2  LIG2        0.0378
     56 C           8.4637    6.6103    8.3810 C.2     2  LIG2        0.2197
     57 C          11.0438    7.8443    8.5571 C.3     2  LIG2        0.0405
     58 H          10.6806    7.8757    9.4460 H       2  LIG2        0.0525
     59 H          10.6299    8.5232    8.0184 H       2  LIG2        0.0525
     60 H          11.9921    7.9969    8.5923 H       2  LIG2        0.0525
     61 C          10.3205    3.2483    5.1261 C.ar    2  LIG2        0.1367
     62 C          12.8964    6.5716    3.2325 C.ar    2  LIG2       -0.0171
     63 O           8.1363    7.7528    8.6132 O.2     2  LIG2       -0.2865
     64 O          10.9933    3.0602    3.9608 O.2     2  LIG2       -0.4548
     65 C          13.6747    8.7162    3.9555 C.ar    2  LIG2       -0.0612
     66 H          14.1577    9.4940    3.7918 H       2  LIG2        0.0618
     67 C          12.9886    8.5529    5.1385 C.ar    2  LIG2       -0.0611
     68 H          13.0357    9.2160    5.7898 H       2  LIG2        0.0618
     69 C          13.6341    7.7503    3.0577 C.ar    2  LIG2       -0.0540
     70 H          14.1185    7.8559    2.2709 H       2  LIG2        0.0624
     71 C          11.6076    4.2274    3.6633 C.ar    2  LIG2        0.1369
     72 C           8.9326    3.9271    7.3935 C.ar    2  LIG2       -0.0154
     73 C           8.1502    4.2307    8.5659 C.2     2  LIG2       -0.0506
     74 H           7.7808    3.5081    9.0200 H       2  LIG2        0.0625
     75 C           7.9066    5.4300    9.0588 C.2     2  LIG2       -0.0128
     76 H           7.3883    5.5281    9.8245 H       2  LIG2        0.0654
     77 C          12.9525    5.5661    2.3061 C.ar    2  LIG2       -0.0505
     78 H          13.4212    5.7162    1.5174 H       2  LIG2        0.0625
     79 C           9.6555    2.2931    5.7651 C.ar    2  LIG2       -0.0181
     80 H           9.6717    1.4245    5.4324 H       2  LIG2        0.0655
     81 C          12.3684    4.3849    2.4803 C.ar    2  LIG2       -0.0181
     82 H          12.4561    3.6986    1.8589 H       2  LIG2        0.0655
     83 C           8.9444    2.5603    6.9006 C.ar    2  LIG2       -0.0506
     84 H           8.4826    1.8873    7.3459 H       2  LIG2        0.0625
@<TRIPOS>BOND
     1    78    77    1
     2    82    81    1
     3    70    69    1
     4    77    81   ar
     5    77    62   ar
     6    81    71   ar
     7    31    30    1
     8    27    26    1
     9    69    62   ar
    10    69    65   ar
    11    62    46   ar
    12    22    21    1
    13    30    21   ar
    14    30    36   ar
    15    71    64   ar
    16    71    54   ar
    17    26    36   ar
    18    26    18   ar
    19    66    65    1
    20    21    28   ar
    21    65    67   ar
    22    64    61   ar
    23    19    18    1
    24    36     8   ar
    25    18    25   ar
    26    46    54   ar
    27    46    48   ar
    28    54    55   ar
    29    53    50    1
    30    28    29    1
    31    28    16   ar
    32    61    55   ar
    33    61    79   ar
    34    67    48   ar
    35    67    68    1
    36    52    50    1
    37    48    49    1
    38     8    16   ar
    39     8     5   ar
    40    80    79    1
    41    25     5   ar
    42    25     4   ar
    43    50    51    1
    44    50    43    1
    45    55    45   ar
    46    16    17    1
    47    79    83   ar
    48     5    10   ar
    49     4     9   ar
    50    43    47    1
    51    45    47    1
    52    45    72   ar
    53    83    84    1
    54    83    72   ar
    55     9    10   ar
    56     9    14   ar
    57    10     3   ar
    58    47    44    1
    59    47    56    1
    60    72    73    1
    61    40    37    1
    62    15    14    1
    63    14    41   ar
    64    39    37    1
    65    44    57    1
    66    59    57    1
    67     2    37    1
    68     2    11    1
    69    37    38    1
    70    56    63    2
    71    56    75    1
    72     3    11    1
    73     3     7   ar
    74    57    60    1
    75    57    58    1
    76     1    11    1
    77     1    32    1
    78    73    74    1
    79    73    75    2
    80    11    20    1
    81    35    32    1
    82    41     7   ar
    83    41    42    1
    84    75    76    1
    85    34    32    1
    86     7    12    1
    87    32    33    1
    88    20     6    2
    89    20    23    1
    90    12    13    1
    91    12    23    2
    92    23    24    1
