@<TRIPOS>MOLECULE
C24 H18 Cl N O3 S
 48 52 0 0 0
SMALL
GASTEIGER

@<TRIPOS>ATOM
      1 C           4.2364    5.4517   11.6111 C.ar    1  LIG1        0.0453
      2 C           4.3069    6.0985   12.8340 C.ar    1  LIG1       -0.0395
      3 H           3.6557    5.9436   13.4792 H       1  LIG1        0.0636
      4 C           5.3426    6.9751   13.0967 C.ar    1  LIG1       -0.0599
      5 H           5.4039    7.3813   13.9303 H       1  LIG1        0.0618
      6 C           6.2861    7.2491   12.1302 C.ar    1  LIG1       -0.0606
      7 H           6.9738    7.8496   12.3086 H       1  LIG1        0.0618
      8 C           6.2112    6.6328   10.8964 C.ar    1  LIG1       -0.0462
      9 H           6.8340    6.8348   10.2357 H       1  LIG1        0.0629
     10 C           5.2024    5.7093   10.6421 C.ar    1  LIG1        0.0339
     11 C           3.5280    4.3224    8.9948 C.ar    1  LIG1        0.0431
     12 C           2.7197    4.1780   10.1444 C.ar    1  LIG1        0.0603
     13 C           1.4073    3.6728   10.0053 C.ar    1  LIG1        0.0850
     14 C           0.5678    3.6007   11.2336 C.2     1  LIG1        0.3411
     15 C          -1.6054    3.6689   12.1369 C.3     1  LIG1        0.0820
     16 H          -1.4857    2.7986   12.5239 H       1  LIG1        0.0661
     17 H          -2.5164    3.7698   11.8520 H       1  LIG1        0.0661
     18 H          -1.3986    4.3414   12.7900 H       1  LIG1        0.0661
     19 C           0.9395    3.2662    8.7377 C.ar    1  LIG1       -0.0205
     20 C          -0.3900    2.5503    8.5865 C.3     1  LIG1       -0.0258
     21 H          -0.5596    2.0202    9.3810 H       1  LIG1        0.0314
     22 H          -1.1004    3.2071    8.5090 H       1  LIG1        0.0314
     23 C          -0.4108    1.6488    7.3704 C.3     1  LIG1       -0.0420
     24 H           0.2512    0.9473    7.4715 H       1  LIG1        0.0272
     25 H          -1.2831    1.2330    7.2843 H       1  LIG1        0.0272
     26 C          -0.1098    2.4588    6.1390 C.3     1  LIG1        0.0108
     27 H          -0.0665    1.8664    5.3726 H       1  LIG1        0.0345
     28 H          -0.8324    3.0870    5.9882 H       1  LIG1        0.0345
     29 C           1.1845    3.2154    6.2472 C.2     1  LIG1        0.1641
     30 C           1.7409    3.4734    7.6046 C.ar    1  LIG1        0.0302
     31 C           3.0509    3.9957    7.7425 C.ar    1  LIG1        0.0084
     32 C           4.0179    4.0819    6.6025 C.ar    1  LIG1       -0.0160
     33 C           4.3722    5.3007    6.0399 C.ar    1  LIG1       -0.0526
     34 H           3.9511    6.0791    6.3268 H       1  LIG1        0.0624
     35 C           5.3443    5.3718    5.0580 C.ar    1  LIG1       -0.0428
     36 H           5.5761    6.1915    4.6856 H       1  LIG1        0.0632
     37 C           5.9613    4.2202    4.6383 C.ar    1  LIG1        0.0410
     38 C           5.6292    3.0043    5.1754 C.ar    1  LIG1       -0.0428
     39 H           6.0523    2.2302    4.8814 H       1  LIG1        0.0632
     40 C           4.6569    2.9400    6.1624 C.ar    1  LIG1       -0.0526
     41 H           4.4323    2.1168    6.5324 H       1  LIG1        0.0624
     42 CL          7.2088    4.3122    3.4236 Cl      1  LIG1       -0.0835
     43 N           3.2224    4.5141   11.3763 N.pl3   1  LIG1       -0.3121
     44 H           2.8870    4.1164   12.0608 H       1  LIG1        0.1522
     45 O           0.9911    3.4218   12.3520 O.2     1  LIG1       -0.2449
     46 O          -0.7256    3.8147   10.9992 O.3     1  LIG1       -0.4644
     47 O           1.7114    3.6476    5.2419 O.2     1  LIG1       -0.2920
     48 S           5.2409    4.7538    9.1627 S.3     1  LIG1       -0.0851
@<TRIPOS>BOND
     1    42    37    1
     2    37    35   ar
     3    37    38   ar
     4    36    35    1
     5    39    38    1
     6    35    33   ar
     7    38    40   ar
     8    47    29    2
     9    27    26    1
    10    28    26    1
    11    33    34    1
    12    33    32   ar
    13    26    29    1
    14    26    23    1
    15    40    41    1
    16    40    32   ar
    17    29    30    1
    18    32    31    1
    19    25    23    1
    20    23    24    1
    21    23    20    1
    22    30    31   ar
    23    30    19   ar
    24    31    11   ar
    25    22    20    1
    26    20    19    1
    27    20    21    1
    28    19    13   ar
    29    11    48    1
    30    11    12   ar
    31    48    10    1
    32    13    12   ar
    33    13    14    1
    34    12    43    1
    35     9     8    1
    36    10     8   ar
    37    10     1   ar
    38     8     6   ar
    39    46    14    1
    40    46    15    1
    41    14    45    2
    42    43     1    1
    43    43    44    1
    44     1     2   ar
    45    17    15    1
    46     6     7    1
    47     6     4   ar
    48    15    16    1
    49    15    18    1
    50     2     4   ar
    51     2     3    1
    52     4     5    1
