@<TRIPOS>MOLECULE
C39 H28 F6 N4 S2
 79 83 0 0 0
SMALL
GASTEIGER

@<TRIPOS>ATOM
      1 S           6.2115    1.5650   15.1538 S.2     1  LIG1       -0.0882
      2 S          12.0308    4.4090    6.1261 S.2     1  LIG1       -0.0882
      3 F           4.4940    1.6042   19.6052 F       1  LIG1       -0.1658
      4 F           3.2878    0.0059   18.9635 F       1  LIG1       -0.1658
      5 F           3.0847    1.9641   18.1075 F       1  LIG1       -0.1658
      6 F          13.0537    4.4968    1.7961 F       1  LIG1       -0.1658
      7 F          13.4430    6.5387    2.1959 F       1  LIG1       -0.1658
      8 F          15.0388    5.1397    2.0169 F       1  LIG1       -0.1658
      9 N           6.4097   -0.7964   20.4001 N.1     1  LIG1       -0.1901
     10 N           7.7705   -1.2475   16.4254 N.1     1  LIG1       -0.1901
     11 N          14.9872    4.6424    7.2719 N.1     1  LIG1       -0.1901
     12 N          17.3258    5.3987    3.9524 N.1     1  LIG1       -0.1901
     13 C           9.0629    3.4136   10.7257 C.3     1  LIG1        0.0219
     14 C           7.6300    3.1089   11.1564 C.ar    1  LIG1       -0.0286
     15 C           6.7338    3.3613   10.1055 C.ar    1  LIG1       -0.0135
     16 C           5.3605    3.2330   10.2841 C.ar    1  LIG1       -0.0531
     17 C           4.8835    2.8007   11.5064 C.ar    1  LIG1       -0.0529
     18 C           5.7601    2.4900   12.5626 C.ar    1  LIG1       -0.0110
     19 C           7.1497    2.6707   12.3833 C.ar    1  LIG1       -0.0489
     20 C           5.2046    1.9935   13.8245 C.ar    1  LIG1        0.0199
     21 C           3.8767    1.8107   14.1508 C.ar    1  LIG1       -0.0464
     22 C           3.6736    1.3832   15.4587 C.ar    1  LIG1       -0.0463
     23 C           4.8461    1.1699   16.1544 C.ar    1  LIG1        0.0263
     24 C           4.9919    0.6753   17.5011 C.2     1  LIG1        0.0961
     25 C           3.9170    1.0506   18.5215 C.3     1  LIG1        0.4203
     26 C           6.0024   -0.1299   17.9366 C.2     1  LIG1        0.1408
     27 C           6.1896   -0.4944   19.3147 C.1     1  LIG1        0.1108
     28 C           6.9838   -0.7123   17.0604 C.1     1  LIG1        0.1108
     29 C           8.8624    3.7203    9.2460 C.ar    1  LIG1       -0.0286
     30 C           7.4976    3.7219    8.9167 C.ar    1  LIG1       -0.0135
     31 C           7.0738    4.0264    7.6306 C.ar    1  LIG1       -0.0531
     32 C           8.0208    4.3114    6.6607 C.ar    1  LIG1       -0.0529
     33 C           9.3889    4.3049    6.9697 C.ar    1  LIG1       -0.0110
     34 C           9.8074    4.0086    8.2791 C.ar    1  LIG1       -0.0489
     35 C          10.3420    4.5991    5.8997 C.ar    1  LIG1        0.0199
     36 C          10.0776    5.0376    4.6250 C.ar    1  LIG1       -0.0464
     37 C          11.2158    5.2042    3.8471 C.ar    1  LIG1       -0.0463
     38 C          12.3988    4.9123    4.5032 C.ar    1  LIG1        0.0263
     39 C          13.7295    5.0573    3.9909 C.2     1  LIG1        0.0961
     40 C          13.8261    5.3157    2.4922 C.3     1  LIG1        0.4203
     41 C          14.8888    5.0271    4.7205 C.2     1  LIG1        0.1408
     42 C          14.8992    4.8171    6.1389 C.1     1  LIG1        0.1108
     43 C          16.2233    5.2342    4.2259 C.1     1  LIG1        0.1108
     44 C          10.0537    2.2647   10.9683 C.3     1  LIG1       -0.0393
     45 C           9.6457    0.9062   10.4173 C.3     1  LIG1       -0.0522
     46 C          10.7692   -0.1154   10.5080 C.3     1  LIG1       -0.0559
     47 C          10.3570   -1.5102   10.0955 C.3     1  LIG1       -0.0653
     48 C           9.5954    4.6773   11.4602 C.3     1  LIG1       -0.0393
     49 C           8.7255    5.9245   11.3534 C.3     1  LIG1       -0.0522
     50 C           9.3869    7.1531   11.9666 C.3     1  LIG1       -0.0559
     51 C           8.4944    8.3795   11.9398 C.3     1  LIG1       -0.0653
     52 H           4.7795    3.4397    9.6050 H       1  LIG1        0.0624
     53 H           3.8976    2.6913   11.5975 H       1  LIG1        0.0624
     54 H           7.7902    2.4901   13.1430 H       1  LIG1        0.0627
     55 H           3.1628    1.9644   13.5262 H       1  LIG1        0.0629
     56 H           2.8560    1.2055   15.8508 H       1  LIG1        0.0629
     57 H           6.1464    4.0364    7.4337 H       1  LIG1        0.0624
     58 H           7.7372    4.5332    5.7604 H       1  LIG1        0.0624
     59 H          10.7070    4.0198    8.4938 H       1  LIG1        0.0627
     60 H           9.2160    5.2319    4.3171 H       1  LIG1        0.0629
     61 H          11.1692    5.4750    2.9122 H       1  LIG1        0.0629
     62 H          10.2189    2.1990   11.9168 H       1  LIG1        0.0277
     63 H          10.9296    2.5530   10.5757 H       1  LIG1        0.0277
     64 H           8.8454    0.5444   10.8950 H       1  LIG1        0.0266
     65 H           9.3365    0.9920    9.4900 H       1  LIG1        0.0266
     66 H          11.4721    0.1790    9.9115 H       1  LIG1        0.0263
     67 H          11.1376   -0.1195   11.4315 H       1  LIG1        0.0263
     68 H           9.5985   -1.8342   10.7034 H       1  LIG1        0.0230
     69 H          11.1398   -2.0609   10.1670 H       1  LIG1        0.0230
     70 H           9.9991   -1.5347    9.2090 H       1  LIG1        0.0230
     71 H           9.7327    4.4809   12.3894 H       1  LIG1        0.0277
     72 H          10.4831    4.8474   11.0611 H       1  LIG1        0.0277
     73 H           7.8722    5.7810   11.8147 H       1  LIG1        0.0266
     74 H           8.4843    6.1078   10.3969 H       1  LIG1        0.0266
     75 H           9.6563    6.9684   12.8875 H       1  LIG1        0.0263
     76 H          10.1507    7.3543   11.4442 H       1  LIG1        0.0263
     77 H           7.6243    8.2230   12.3766 H       1  LIG1        0.0230
     78 H           8.9162    9.1758   12.4277 H       1  LIG1        0.0230
     79 H           8.2905    8.6236   10.9972 H       1  LIG1        0.0230
@<TRIPOS>BOND
     1     6    40    1
     2     8    40    1
     3     7    40    1
     4    40    39    1
     5    61    37    1
     6    37    38   ar
     7    37    36   ar
     8    12    43    3
     9    39    38    1
    10    39    41    2
    11    43    41    1
    12    60    36    1
    13    38     2   ar
    14    36    35   ar
    15    41    42    1
    16    58    32    1
    17    35     2   ar
    18    35    33    1
    19    42    11    3
    20    32    33   ar
    21    32    31   ar
    22    33    34   ar
    23    57    31    1
    24    31    30   ar
    25    34    59    1
    26    34    29   ar
    27    30    29   ar
    28    30    15    1
    29    70    47    1
    30    29    13    1
    31    65    45    1
    32    52    16    1
    33    66    46    1
    34    47    69    1
    35    47    46    1
    36    47    68    1
    37    15    16   ar
    38    15    14   ar
    39    16    17   ar
    40    74    49    1
    41    45    46    1
    42    45    64    1
    43    45    44    1
    44    46    67    1
    45    63    44    1
    46    13    44    1
    47    13    14    1
    48    13    48    1
    49    44    62    1
    50    79    51    1
    51    72    48    1
    52    14    19   ar
    53    49    48    1
    54    49    73    1
    55    49    50    1
    56    76    50    1
    57    48    71    1
    58    17    53    1
    59    17    18   ar
    60    51    50    1
    61    51    77    1
    62    51    78    1
    63    50    75    1
    64    19    18   ar
    65    19    54    1
    66    18    20    1
    67    55    21    1
    68    20    21   ar
    69    20     1   ar
    70    21    22   ar
    71     1    23   ar
    72    22    56    1
    73    22    23   ar
    74    23    24    1
    75    10    28    3
    76    28    26    1
    77    24    26    2
    78    24    25    1
    79    26    27    1
    80     5    25    1
    81    25     4    1
    82    25     3    1
    83    27     9    3
