@<TRIPOS>MOLECULE
SJY-005
 40 42 0 0 0
SMALL
GASTEIGER

@<TRIPOS>ATOM
      1 BR          3.7377    0.6335   29.8417 Br      1  LIG1       -0.0503
      2 C           6.8804    2.3794   24.8631 C.2     1  LIG1        0.0256
      3 C           6.5967    3.0723   23.7543 C.2     1  LIG1        0.0586
      4 C           7.7343    3.1668   22.7492 C.3     1  LIG1        0.0264
      5 H           7.8280    4.1045   22.4782 H       1  LIG1        0.0408
      6 C           9.0256    2.7466   23.4971 C.3     1  LIG1        0.0094
      7 H           9.5254    3.5320   23.7714 H       1  LIG1        0.0389
      8 H           9.5894    2.2108   22.9165 H       1  LIG1        0.0389
      9 C           6.0250    2.0248   26.0304 C.ar    1  LIG1       -0.0111
     10 C           6.2571    2.6348   27.2571 C.ar    1  LIG1       -0.0525
     11 H           6.8953    3.3075   27.3270 H       1  LIG1        0.0624
     12 C           5.5445    2.2464   28.3754 C.ar    1  LIG1       -0.0472
     13 H           5.6873    2.6676   29.1924 H       1  LIG1        0.0629
     14 C           4.6266    1.2365   28.2726 C.ar    1  LIG1        0.0179
     15 C           4.3782    0.6226   27.0761 C.ar    1  LIG1       -0.0472
     16 H           3.7474   -0.0578   27.0201 H       1  LIG1        0.0629
     17 C           5.0759    1.0264   25.9507 C.ar    1  LIG1       -0.0525
     18 H           4.9018    0.6197   25.1327 H       1  LIG1        0.0624
     19 C           5.2975    3.7045   23.4940 C.2     1  LIG1        0.3368
     20 C           4.1476    5.1761   22.0328 C.3     1  LIG1        0.0900
     21 H           3.8307    5.7177   22.7729 H       1  LIG1        0.0695
     22 H           3.4558    4.5353   21.8036 H       1  LIG1        0.0695
     23 C           4.4540    6.0367   20.8643 C.3     1  LIG1       -0.0306
     24 H           5.0863    6.7113   21.1217 H       1  LIG1        0.0262
     25 H           3.6477    6.4540   20.5543 H       1  LIG1        0.0262
     26 H           4.8274    5.4999   20.1622 H       1  LIG1        0.0262
     27 C           7.5126    2.3312   21.5021 C.ar    1  LIG1       -0.0389
     28 C           6.8640    1.1218   21.5284 C.ar    1  LIG1       -0.0580
     29 H           6.4921    0.8201   22.3248 H       1  LIG1        0.0620
     30 C           6.7539    0.3421   20.3887 C.ar    1  LIG1       -0.0615
     31 H           6.3047   -0.4722   20.4228 H       1  LIG1        0.0618
     32 C           7.2999    0.7671   19.2187 C.ar    1  LIG1       -0.0617
     33 H           7.2196    0.2486   18.4501 H       1  LIG1        0.0618
     34 C           7.9604    1.9448   19.1766 C.ar    1  LIG1       -0.0615
     35 H           8.3472    2.2291   18.3795 H       1  LIG1        0.0618
     36 C           8.0660    2.7293   20.3056 C.ar    1  LIG1       -0.0580
     37 H           8.5168    3.5407   20.2572 H       1  LIG1        0.0620
     38 O           4.3029    3.5831   24.1547 O.2     1  LIG1       -0.2453
     39 O           5.3616    4.4852   22.4039 O.3     1  LIG1       -0.4616
     40 S           8.5253    1.7857   24.9484 S.3     1  LIG1       -0.1232
@<TRIPOS>BOND
     1    35    34    1
     2    33    32    1
     3    34    32   ar
     4    34    36   ar
     5    32    30   ar
     6    26    23    1
     7    37    36    1
     8    36    27   ar
     9    30    31    1
    10    30    28   ar
    11    25    23    1
    12    23    24    1
    13    23    20    1
    14    27    28   ar
    15    27     4    1
    16    28    29    1
    17    22    20    1
    18    20    39    1
    19    20    21    1
    20    39    19    1
    21     5     4    1
    22     4     6    1
    23     4     3    1
    24     8     6    1
    25    19     3    1
    26    19    38    2
    27     6     7    1
    28     6    40    1
    29     3     2    2
    30     2    40    1
    31     2     9    1
    32    18    17    1
    33    17     9   ar
    34    17    15   ar
    35     9    10   ar
    36    16    15    1
    37    15    14   ar
    38    10    11    1
    39    10    12   ar
    40    14    12   ar
    41    14     1    1
    42    12    13    1
