@<TRIPOS>MOLECULE
C20 H17 Br N2 O2
 42 45 0 0 0
SMALL
GASTEIGER

@<TRIPOS>ATOM
      1 BR          9.8740    3.4561   10.3899 Br      1  LIG1       -0.0503
      2 O           2.5310   -0.8905    5.0876 O.2     1  LIG1       -0.2739
      3 O           6.7825   -1.0285    2.9382 O.2     1  LIG1       -0.2906
      4 N           5.2030    1.2421    5.9661 N.3     1  LIG1       -0.2114
      5 N           4.3489    0.5160    5.0457 N.am    1  LIG1       -0.1983
      6 C           7.4941    0.5807    8.5751 C.ar    1  LIG1       -0.0560
      7 H           7.1210   -0.2601    8.8134 H       1  LIG1        0.0621
      8 C           8.2814    1.2698    9.4941 C.ar    1  LIG1       -0.0475
      9 H           8.4457    0.9055   10.3563 H       1  LIG1        0.0629
     10 C           8.8213    2.4937    9.1354 C.ar    1  LIG1        0.0179
     11 C           8.6021    3.0431    7.8784 C.ar    1  LIG1       -0.0475
     12 H           8.9816    3.8817    7.6448 H       1  LIG1        0.0629
     13 C           7.8183    2.3431    6.9693 C.ar    1  LIG1       -0.0560
     14 H           7.6675    2.7062    6.1040 H       1  LIG1        0.0621
     15 C           7.2466    1.1095    7.3091 C.ar    1  LIG1       -0.0282
     16 C           6.3679    0.3678    6.3201 C.3     1  LIG1        0.0606
     17 H           6.0436   -0.4871    6.7237 H       1  LIG1        0.0533
     18 C           7.1280    0.0796    5.0208 C.3     1  LIG1        0.0331
     19 H           7.8188   -0.5616    5.2210 H       1  LIG1        0.0365
     20 H           7.6005    0.9165    4.7599 H       1  LIG1        0.0365
     21 C           6.3013   -0.3843    3.8517 C.2     1  LIG1        0.1805
     22 C           4.8849    0.1035    3.8031 C.2     1  LIG1        0.0959
     23 C           4.1863    0.0633    2.6541 C.2     1  LIG1       -0.0283
     24 H           4.6089   -0.4209    1.9543 H       1  LIG1        0.0644
     25 C           2.8915    0.6349    2.2977 C.ar    1  LIG1       -0.0231
     26 C           2.3740    0.3278    1.0282 C.ar    1  LIG1       -0.0545
     27 H           2.8141   -0.3214    0.4917 H       1  LIG1        0.0623
     28 C           1.2345    0.9511    0.5408 C.ar    1  LIG1       -0.0612
     29 H           0.9173    0.7475   -0.3310 H       1  LIG1        0.0618
     30 C           0.5602    1.8708    1.3289 C.ar    1  LIG1       -0.0617
     31 H          -0.2302    2.2877    1.0068 H       1  LIG1        0.0618
     32 C           1.0477    2.1781    2.5916 C.ar    1  LIG1       -0.0612
     33 H           0.5862    2.8096    3.1313 H       1  LIG1        0.0618
     34 C           2.1972    1.5771    3.0740 C.ar    1  LIG1       -0.0545
     35 H           2.5193    1.8043    3.9382 H       1  LIG1        0.0623
     36 C           3.3076   -0.1556    5.6623 C.2     1  LIG1        0.2351
     37 C           3.3334    0.2428    7.1235 C.3     1  LIG1        0.0401
     38 H           3.6930   -0.4864    7.6892 H       1  LIG1        0.0372
     39 H           2.4300    0.4902    7.4449 H       1  LIG1        0.0372
     40 C           4.2691    1.4500    7.1124 C.3     1  LIG1        0.0263
     41 H           3.7535    2.2870    6.9923 H       1  LIG1        0.0448
     42 H           4.7716    1.5066    7.9631 H       1  LIG1        0.0448
@<TRIPOS>BOND
     1    29    28    1
     2    27    26    1
     3    28    26   ar
     4    28    30   ar
     5    31    30    1
     6    26    25   ar
     7    30    32   ar
     8    24    23    1
     9    25    23    1
    10    25    34   ar
    11    32    34   ar
    12    32    33    1
    13    23    22    2
    14     3    21    2
    15    34    35    1
    16    22    21    1
    17    22     5    1
    18    21    18    1
    19    20    18    1
    20    18    19    1
    21    18    16    1
    22     5    36   am
    23     5     4    1
    24     2    36    2
    25    36    37    1
    26     4    16    1
    27     4    40    1
    28    14    13    1
    29    16    17    1
    30    16    15    1
    31    13    15   ar
    32    13    11   ar
    33    41    40    1
    34    40    37    1
    35    40    42    1
    36    37    39    1
    37    37    38    1
    38    15     6   ar
    39    12    11    1
    40    11    10   ar
    41     6     7    1
    42     6     8   ar
    43    10     8   ar
    44    10     1    1
    45     8     9    1
