@<TRIPOS>MOLECULE
C11 H6 Cl2 O S
 21 22 0 0 0
SMALL
GASTEIGER

@<TRIPOS>ATOM
      1 S          10.7322    1.6710    4.1341 S.2     1  LIG1       -0.0934
      2 CL         17.7884    1.6710    8.8265 Cl      1  LIG1       -0.0820
      3 CL         15.1068    1.6710   10.4682 Cl      1  LIG1       -0.0820
      4 C          15.0839    1.6710    8.7458 C.ar    1  LIG1        0.0598
      5 C          12.4942    1.6710    6.0182 C.ar    1  LIG1       -0.0102
      6 C          11.2140    1.6710    6.6166 C.ar    1  LIG1       -0.0367
      7 H          11.0948    1.6710    7.5394 H       1  LIG1        0.0636
      8 C          14.9893    1.6710    6.0168 C.ar    1  LIG1       -0.0525
      9 H          14.9695    1.6710    5.0872 H       1  LIG1        0.0624
     10 C          12.3470    1.6710    4.6510 C.ar    1  LIG1       -0.0159
     11 H          13.0678    1.6710    4.0635 H       1  LIG1        0.0700
     12 C          13.8551    1.6710    8.0969 C.ar    1  LIG1       -0.0342
     13 H          13.0689    1.6710    8.5945 H       1  LIG1        0.0639
     14 C          16.2614    1.6710    8.0329 C.ar    1  LIG1        0.0593
     15 C          13.7943    1.6710    6.7066 C.ar    1  LIG1       -0.0159
     16 C          16.2112    1.6710    6.6561 C.ar    1  LIG1       -0.0414
     17 H          16.9973    1.6710    6.1586 H       1  LIG1        0.0633
     18 C          10.1732    1.6710    5.7496 C.ar    1  LIG1        0.0519
     19 O           7.8790    1.6710    5.2112 O.2     1  LIG1       -0.2952
     20 C           8.7574    1.6710    6.0304 C.2     1  LIG1        0.1568
     21 H           8.5027    1.6710    6.9246 H       1  LIG1        0.1087
@<TRIPOS>BOND
     1    11    10    1
     2     1    10   ar
     3     1    18   ar
     4    10     5   ar
     5     9     8    1
     6    19    20    2
     7    18    20    1
     8    18     6   ar
     9     8    16   ar
    10     8    15   ar
    11     5     6   ar
    12     5    15    1
    13    20    21    1
    14    17    16    1
    15     6     7    1
    16    16    14   ar
    17    15    12   ar
    18    14     4   ar
    19    14     2    1
    20    12    13    1
    21    12     4   ar
    22     4     3    1
