@<TRIPOS>MOLECULE
1555941.cif
 37 39 0 0 0
SMALL
GASTEIGER

@<TRIPOS>ATOM
      1 O           5.7851    4.3366   12.6898 O.3     1  LIG1       -0.3687
      2 O           2.4747    7.6188   12.6411 O.3     1  LIG1       -0.3918
      3 H           2.6520    8.0295   11.9348 H       1  LIG1        0.2098
      4 C           4.6896    3.6463   13.3363 C.3     1  LIG1        0.0918
      5 C           3.6562    4.6806   13.7983 C.3     1  LIG1       -0.0166
      6 H           3.2479    5.1022   13.0021 H       1  LIG1        0.0299
      7 H           2.9369    4.2136   14.2937 H       1  LIG1        0.0299
      8 C           4.2387    5.7766   14.6920 C.3     1  LIG1       -0.0308
      9 H           4.4531    5.4159   15.5989 H       1  LIG1        0.0306
     10 C           3.3140    6.9970   14.7967 C.3     1  LIG1       -0.0236
     11 H           3.5252    7.5256   15.6079 H       1  LIG1        0.0293
     12 H           2.3664    6.7141   14.8398 H       1  LIG1        0.0293
     13 C           3.5767    7.8281   13.5217 C.3     1  LIG1        0.0558
     14 H           3.6454    8.7982   13.7566 H       1  LIG1        0.0593
     15 C           4.9243    7.3251   12.9699 C.3     1  LIG1       -0.0217
     16 H           4.7914    6.8461   12.1138 H       1  LIG1        0.0294
     17 H           5.5412    8.0844   12.8163 H       1  LIG1        0.0294
     18 C           5.4929    6.3765   14.0354 C.3     1  LIG1       -0.0122
     19 H           5.9749    6.9232   14.7197 H       1  LIG1        0.0326
     20 C           6.4386    5.3105   13.5228 C.3     1  LIG1        0.0519
     21 H           7.1629    5.7441   13.0043 H       1  LIG1        0.0563
     22 H           6.8532    4.8494   14.2937 H       1  LIG1        0.0563
     23 C           4.0855    2.7765   12.2403 C.3     1  LIG1       -0.0316
     24 H           3.8502    3.3361   11.4703 H       1  LIG1        0.0261
     25 H           3.2797    2.3343   12.5806 H       1  LIG1        0.0261
     26 H           4.7373    2.0986   11.9643 H       1  LIG1        0.0261
     27 C           5.2353    2.7336   14.4421 C.ar    1  LIG1       -0.0161
     28 C           4.4658    2.3634   15.5461 C.ar    1  LIG1       -0.0559
     29 H           3.6142    2.7628   15.6804 H       1  LIG1        0.0621
     30 C           4.9345    1.4139   16.4515 C.ar    1  LIG1       -0.0614
     31 H           4.3939    1.1620   17.1918 H       1  LIG1        0.0618
     32 C           6.1784    0.8355   16.2839 C.ar    1  LIG1       -0.0617
     33 H           6.4945    0.1911   16.9063 H       1  LIG1        0.0618
     34 C           6.9588    1.2057   15.2007 C.ar    1  LIG1       -0.0614
     35 H           7.8173    0.8175   15.0800 H       1  LIG1        0.0618
     36 C           6.4869    2.1449   14.2887 C.ar    1  LIG1       -0.0559
     37 H           7.0294    2.3891   13.5482 H       1  LIG1        0.0621
@<TRIPOS>BOND
     1    24    23    1
     2     3     2    1
     3    26    23    1
     4    16    15    1
     5    23    25    1
     6    23     4    1
     7     2    13    1
     8     1     4    1
     9     1    20    1
    10    17    15    1
    11    15    13    1
    12    15    18    1
    13     6     5    1
    14    21    20    1
    15     4     5    1
    16     4    27    1
    17    13    14    1
    18    13    10    1
    19    20    18    1
    20    20    22    1
    21    37    36    1
    22     5     7    1
    23     5     8    1
    24    18     8    1
    25    18    19    1
    26    36    27   ar
    27    36    34   ar
    28    27    28   ar
    29     8    10    1
    30     8     9    1
    31    10    12    1
    32    10    11    1
    33    35    34    1
    34    34    32   ar
    35    28    29    1
    36    28    30   ar
    37    32    30   ar
    38    32    33    1
    39    30    31    1
