@<TRIPOS>MOLECULE
C26 H24 N2 O2
 54 58 0 0 0
SMALL
GASTEIGER

@<TRIPOS>ATOM
      1 C           6.3587    7.6938    6.9305 C.ar    1  LIG1       -0.0399
      2 H           6.7651    6.8411    7.0325 H       1  LIG1        0.0636
      3 C           6.3366    8.3093    5.6858 C.ar    1  LIG1       -0.0600
      4 H           6.6716    7.8482    4.9258 H       1  LIG1        0.0618
      5 C           5.8295    9.5909    5.5453 C.ar    1  LIG1       -0.0616
      6 H           5.8562   10.0322    4.7048 H       1  LIG1        0.0618
      7 C           5.2856   10.2150    6.6459 C.ar    1  LIG1       -0.0600
      8 H           4.9162   11.0855    6.5523 H       1  LIG1        0.0618
      9 C           5.2647    9.5944    7.8926 C.ar    1  LIG1       -0.0399
     10 H           4.8962   10.0430    8.6449 H       1  LIG1        0.0636
     11 C           5.7865    8.3239    8.0264 C.ar    1  LIG1        0.0413
     12 C           5.4266    6.3398    9.5640 C.ar    1  LIG1        0.0452
     13 C           4.8742    5.4188    8.6940 C.ar    1  LIG1       -0.0396
     14 H           4.7102    5.6376    7.7845 H       1  LIG1        0.0636
     15 C           4.5656    4.1572    9.2019 C.ar    1  LIG1       -0.0600
     16 H           4.1735    3.5076    8.6308 H       1  LIG1        0.0618
     17 C           4.8199    3.8328   10.5269 C.ar    1  LIG1       -0.0614
     18 H           4.6056    2.9657   10.8501 H       1  LIG1        0.0618
     19 C           5.3893    4.7719   11.3863 C.ar    1  LIG1       -0.0560
     20 H           5.5751    4.5495   12.2906 H       1  LIG1        0.0621
     21 C           5.6788    6.0323   10.8991 C.ar    1  LIG1       -0.0127
     22 C           6.2974    7.2306   11.5587 C.3     1  LIG1        0.0783
     23 H           7.2509    7.0101   11.7654 H       1  LIG1        0.0454
     24 C           6.2886    8.2866   10.4569 C.2     1  LIG1        0.2327
     25 C           5.6401    7.7493   12.8487 C.3     1  LIG1        0.0779
     26 H           6.0573    8.6234   13.0961 H       1  LIG1        0.0454
     27 C           4.1412    7.9083   12.8373 C.ar    1  LIG1       -0.0131
     28 C           3.3137    8.6866   12.0615 C.ar    1  LIG1       -0.0560
     29 H           3.6692    9.2199   11.3598 H       1  LIG1        0.0621
     30 C           1.9396    8.6803   12.3240 C.ar    1  LIG1       -0.0614
     31 H           1.3542    9.2111   11.7964 H       1  LIG1        0.0618
     32 C           1.4318    7.9025   13.3502 C.ar    1  LIG1       -0.0600
     33 H           0.4965    7.9103   13.5186 H       1  LIG1        0.0618
     34 C           2.2574    7.1088   14.1392 C.ar    1  LIG1       -0.0400
     35 H           1.9029    6.5782   14.8423 H       1  LIG1        0.0636
     36 C           3.6106    7.1209   13.8644 C.ar    1  LIG1        0.0402
     37 C           5.8650    6.7528   13.9846 C.2     1  LIG1        0.2283
     38 C           4.4802    5.3815   15.5222 C.3     1  LIG1        0.0198
     39 H           5.1188    4.6498   15.3323 H       1  LIG1        0.0469
     40 H           3.5651    5.0093   15.4506 H       1  LIG1        0.0469
     41 C           4.6997    5.8683   16.9327 C.3     1  LIG1       -0.0370
     42 H           4.0075    6.5380   17.1616 H       1  LIG1        0.0280
     43 H           5.5837    6.3086   16.9954 H       1  LIG1        0.0280
     44 C           4.6358    4.7029   17.9382 C.3     1  LIG1       -0.0545
     45 H           3.7170    4.3354   17.9473 H       1  LIG1        0.0263
     46 H           5.2451    3.9832   17.6361 H       1  LIG1        0.0263
     47 C           5.0115    5.1050   19.3223 C.3     1  LIG1       -0.0652
     48 H           5.9156    5.4823   19.3189 H       1  LIG1        0.0230
     49 H           4.9871    4.3210   19.9089 H       1  LIG1        0.0230
     50 H           4.3781    5.7781   19.6498 H       1  LIG1        0.0230
     51 N           5.8098    7.6853    9.3053 N.am    1  LIG1       -0.2395
     52 N           4.6449    6.4267   14.5129 N.am    1  LIG1       -0.2706
     53 O           6.6475    9.4419   10.5627 O.2     1  LIG1       -0.2742
     54 O           6.9379    6.2951   14.3387 O.2     1  LIG1       -0.2746
@<TRIPOS>BOND
     1     6     5    1
     2     4     3    1
     3     5     3   ar
     4     5     7   ar
     5     3     1   ar
     6     8     7    1
     7     7     9   ar
     8     1     2    1
     9     1    11   ar
    10    14    13    1
    11     9    11   ar
    12     9    10    1
    13    11    51    1
    14    16    15    1
    15    13    15   ar
    16    13    12   ar
    17    15    17   ar
    18    51    12    1
    19    51    24   am
    20    12    21   ar
    21    24    53    2
    22    24    22    1
    23    17    18    1
    24    17    19   ar
    25    21    19   ar
    26    21    22    1
    27    29    28    1
    28    19    20    1
    29    22    23    1
    30    22    25    1
    31    31    30    1
    32    28    30   ar
    33    28    27   ar
    34    30    32   ar
    35    27    25    1
    36    27    36   ar
    37    25    26    1
    38    25    37    1
    39    32    33    1
    40    32    34   ar
    41    36    34   ar
    42    36    52    1
    43    37    54    2
    44    37    52   am
    45    34    35    1
    46    52    38    1
    47    39    38    1
    48    40    38    1
    49    38    41    1
    50    41    43    1
    51    41    42    1
    52    41    44    1
    53    46    44    1
    54    44    45    1
    55    44    47    1
    56    48    47    1
    57    47    50    1
    58    47    49    1
