@<TRIPOS>MOLECULE
C33 H34 N2 O5
 74 77 0 0 0
SMALL
GASTEIGER

@<TRIPOS>ATOM
      1 O           4.4051    6.8671   11.1692 O.2     1  LIG1       -0.2702
      2 O           1.7064    6.9552    6.8113 O.2     1  LIG1       -0.2702
      3 N           3.5760    6.4143    9.1160 N.am    1  LIG1       -0.3042
      4 H           2.9233    6.5768    8.5406 H       1  LIG1        0.1496
      5 N           3.2730    6.2491    5.3435 N.am    1  LIG1       -0.3039
      6 H           3.5734    6.2641    4.4766 H       1  LIG1        0.1496
      7 C           3.4781    6.9185   10.3642 C.2     1  LIG1        0.2445
      8 C           4.7872    5.7275    8.6740 C.3     1  LIG1        0.0532
      9 H           5.5517    6.1399    9.1693 H       1  LIG1        0.0552
     10 C           5.0318    5.9873    7.1729 C.3     1  LIG1        0.0015
     11 H           5.8832    5.5215    6.9329 H       1  LIG1        0.0341
     12 C           3.8960    5.3368    6.3089 C.3     1  LIG1        0.0601
     13 H           3.1748    5.0711    6.9485 H       1  LIG1        0.0554
     14 C           2.1785    6.9576    5.6639 C.2     1  LIG1        0.2445
     15 C           5.2499    7.4750    6.9119 C.3     1  LIG1       -0.0584
     16 H           5.4038    7.6196    5.9539 H       1  LIG1        0.0234
     17 H           4.4561    7.9762    7.1957 H       1  LIG1        0.0234
     18 H           6.0291    7.7841    7.4176 H       1  LIG1        0.0234
     19 C           2.1640    7.5316   10.7470 C.ar    1  LIG1        0.0367
     20 C           0.9603    7.1425   10.1767 C.ar    1  LIG1       -0.0496
     21 H           0.9556    6.5098    9.4690 H       1  LIG1        0.0625
     22 C          -0.2332    7.6733   10.6365 C.ar    1  LIG1       -0.0610
     23 H          -1.0542    7.3891   10.2534 H       1  LIG1        0.0618
     24 C          -0.2366    8.6142   11.6497 C.ar    1  LIG1       -0.0617
     25 H          -1.0573    8.9815   11.9565 H       1  LIG1        0.0618
     26 C           0.9587    9.0199   12.2146 C.ar    1  LIG1       -0.0610
     27 H           0.9614    9.6722   12.9044 H       1  LIG1        0.0618
     28 C           2.1547    8.4723   11.7737 C.ar    1  LIG1       -0.0496
     29 H           2.9727    8.7411   12.1745 H       1  LIG1        0.0625
     30 C           4.7807    4.2427    9.0259 C.ar    1  LIG1       -0.0269
     31 C           3.6659    3.5949    9.5276 C.ar    1  LIG1       -0.0568
     32 H           2.8603    4.0828    9.6559 H       1  LIG1        0.0621
     33 C           3.7034    2.2393    9.8482 C.ar    1  LIG1       -0.0614
     34 H           2.9280    1.8140   10.1950 H       1  LIG1        0.0618
     35 C           4.8603    1.5137    9.6637 C.ar    1  LIG1       -0.0617
     36 H           4.8863    0.5898    9.8836 H       1  LIG1        0.0618
     37 C           5.9854    2.1410    9.1559 C.ar    1  LIG1       -0.0614
     38 H           6.7833    1.6451    9.0175 H       1  LIG1        0.0618
     39 C           5.9462    3.4957    8.8499 C.ar    1  LIG1       -0.0568
     40 H           6.7269    3.9211    8.5153 H       1  LIG1        0.0621
     41 C           4.3282    4.0707    5.6088 C.ar    1  LIG1        0.0564
     42 C           5.4100    4.0417    4.7197 C.ar    1  LIG1        0.1320
     43 C           5.8235    2.8699    4.0819 C.ar    1  LIG1        0.0223
     44 H           6.5586    2.8729    3.4801 H       1  LIG1        0.0691
     45 C           5.1263    1.6988    4.3538 C.ar    1  LIG1        0.1271
     46 C           4.0376    1.6839    5.2209 C.ar    1  LIG1        0.0223
     47 H           3.5750    0.8739    5.4011 H       1  LIG1        0.0691
     48 C           3.6380    2.8694    5.8184 C.ar    1  LIG1        0.1320
     49 O           2.5454    2.9530    6.6361 O.3     1  LIG1       -0.4945
     50 C           1.8037    1.7586    6.8773 C.3     1  LIG1        0.0788
     51 H           1.4510    1.4163    6.0298 H       1  LIG1        0.0660
     52 H           1.0608    1.9534    7.4857 H       1  LIG1        0.0660
     53 H           2.3898    1.0866    7.2833 H       1  LIG1        0.0660
     54 O           5.4234    0.4818    3.8059 O.3     1  LIG1       -0.4949
     55 C           6.4930    0.4075    2.8685 C.3     1  LIG1        0.0788
     56 H           6.3454    1.0589    2.1507 H       1  LIG1        0.0660
     57 H           6.5308   -0.4950    2.4874 H       1  LIG1        0.0660
     58 H           7.3388    0.6059    3.3224 H       1  LIG1        0.0660
     59 O           6.0031    5.2580    4.5050 O.3     1  LIG1       -0.4945
     60 C           7.1230    5.3117    3.6185 C.3     1  LIG1        0.0788
     61 H           7.8352    4.7307    3.9569 H       1  LIG1        0.0660
     62 H           7.4517    6.2328    3.5638 H       1  LIG1        0.0660
     63 H           6.8487    5.0086    2.7269 H       1  LIG1        0.0660
     64 C           1.5370    7.7623    4.5712 C.ar    1  LIG1        0.0367
     65 C           2.2476    8.2973    3.5071 C.ar    1  LIG1       -0.0496
     66 H           3.1694    8.0932    3.4022 H       1  LIG1        0.0625
     67 C           1.6126    9.1316    2.5957 C.ar    1  LIG1       -0.0610
     68 H           2.1057    9.5141    1.8802 H       1  LIG1        0.0618
     69 C           0.2641    9.4068    2.7290 C.ar    1  LIG1       -0.0617
     70 H          -0.1653    9.9823    2.1079 H       1  LIG1        0.0618
     71 C          -0.4598    8.8465    3.7648 C.ar    1  LIG1       -0.0610
     72 H          -1.3907    9.0217    3.8421 H       1  LIG1        0.0618
     73 C           0.1705    8.0316    4.6886 C.ar    1  LIG1       -0.0496
     74 H          -0.3274    7.6545    5.4050 H       1  LIG1        0.0625
@<TRIPOS>BOND
     1    68    67    1
     2    70    69    1
     3    56    55    1
     4    57    55    1
     5    67    69   ar
     6    67    65   ar
     7    63    60    1
     8    69    71   ar
     9    55    58    1
    10    55    54    1
    11    66    65    1
    12    44    43    1
    13    65    64   ar
    14    62    60    1
    15    60    61    1
    16    60    59    1
    17    71    72    1
    18    71    73   ar
    19    54    45    1
    20    43    45   ar
    21    43    42   ar
    22    45    46   ar
    23     6     5    1
    24    59    42    1
    25    64    73   ar
    26    64    14    1
    27    73    74    1
    28    42    41   ar
    29    46    47    1
    30    46    48   ar
    31     5    14   am
    32     5    12    1
    33    41    48   ar
    34    41    12    1
    35    14     2    2
    36    48    49    1
    37    16    15    1
    38    51    50    1
    39    12    13    1
    40    12    10    1
    41    49    50    1
    42    50    53    1
    43    50    52    1
    44    15    10    1
    45    15    17    1
    46    15    18    1
    47    11    10    1
    48    10     8    1
    49    40    39    1
    50     4     3    1
    51     8    30    1
    52     8     3    1
    53     8     9    1
    54    39    30   ar
    55    39    37   ar
    56    38    37    1
    57    30    31   ar
    58     3     7   am
    59    37    35   ar
    60    21    20    1
    61    31    32    1
    62    31    33   ar
    63    35    33   ar
    64    35    36    1
    65    33    34    1
    66    20    22   ar
    67    20    19   ar
    68    23    22    1
    69     7    19    1
    70     7     1    2
    71    22    24   ar
    72    19    28   ar
    73    24    25    1
    74    24    26   ar
    75    28    29    1
    76    28    26   ar
    77    26    27    1
