@<TRIPOS>MOLECULE
3-benzoyl-1,1-dioxo-1,2-benzothiazolidine
 28 30 0 0 0
SMALL
GASTEIGER

@<TRIPOS>ATOM
      1 S           9.6397    0.4518    0.6680 S.O2    1  LIG1        0.1000
      2 O          10.4591   -0.0470   -0.3935 O.2     1  LIG1       -0.1463
      3 O           8.7262   -0.4462    1.3002 O.2     1  LIG1       -0.1463
      4 O           9.4277    5.1123    0.2936 O.2     1  LIG1       -0.2849
      5 N           8.7653    1.7719    0.0646 N.2     1  LIG1       -0.1246
      6 C           9.1323    2.8453    0.6870 C.2     1  LIG1        0.1417
      7 C           8.6280    4.1998    0.2254 C.2     1  LIG1        0.2134
      8 C           7.2757    4.3474   -0.3533 C.ar    1  LIG1        0.0239
      9 C           6.2533    3.4302   -0.1361 C.ar    1  LIG1       -0.0509
     10 H           6.4090    2.6706    0.3764 H       1  LIG1        0.0625
     11 C           4.9980    3.6554   -0.6901 C.ar    1  LIG1       -0.0611
     12 H           4.3100    3.0469   -0.5469 H       1  LIG1        0.0618
     13 C           4.7763    4.7839   -1.4538 C.ar    1  LIG1       -0.0617
     14 H           3.9349    4.9336   -1.8207 H       1  LIG1        0.0618
     15 C           5.7923    5.6943   -1.6783 C.ar    1  LIG1       -0.0611
     16 H           5.6346    6.4453   -2.2041 H       1  LIG1        0.0618
     17 C           7.0389    5.4918   -1.1241 C.ar    1  LIG1       -0.0509
     18 H           7.7185    6.1120   -1.2621 H       1  LIG1        0.0625
     19 C          10.5752    1.3816    1.8348 C.ar    1  LIG1        0.1218
     20 C          10.1775    2.7117    1.7385 C.ar    1  LIG1        0.0325
     21 C          10.7564    3.6582    2.5681 C.ar    1  LIG1       -0.0505
     22 H          10.5019    4.5521    2.5242 H       1  LIG1        0.0625
     23 C          11.7300    3.2335    3.4699 C.ar    1  LIG1       -0.0610
     24 H          12.1275    3.8542    4.0366 H       1  LIG1        0.0618
     25 C          12.1196    1.9013    3.5408 C.ar    1  LIG1       -0.0599
     26 H          12.7726    1.6445    4.1516 H       1  LIG1        0.0618
     27 C          11.5447    0.9474    2.7077 C.ar    1  LIG1       -0.0342
     28 H          11.8046    0.0547    2.7401 H       1  LIG1        0.0637
@<TRIPOS>BOND
     1    16    15    1
     2    14    13    1
     3    15    13   ar
     4    15    17   ar
     5    13    11   ar
     6    18    17    1
     7    17     8   ar
     8    11    12    1
     9    11     9   ar
    10     2     1    2
    11     8     9   ar
    12     8     7    1
    13     9    10    1
    14     5     1    1
    15     5     6    2
    16     7     4    2
    17     7     6    1
    18     1     3    2
    19     1    19    1
    20     6    20    1
    21    20    19   ar
    22    20    21   ar
    23    19    27   ar
    24    22    21    1
    25    21    23   ar
    26    27    28    1
    27    27    25   ar
    28    23    25   ar
    29    23    24    1
    30    25    26    1
