@<TRIPOS>MOLECULE
1556171.cif
 55 60 0 0 0
SMALL
GASTEIGER

@<TRIPOS>ATOM
      1 S           1.1471    5.3510    5.2516 S.O2    1  LIG1        0.0216
      2 O           0.8045    3.9498    5.2748 O.2     1  LIG1       -0.1646
      3 O           0.2095    6.2883    4.6751 O.2     1  LIG1       -0.1646
      4 O           4.5918    5.7392   -0.3339 O.3     1  LIG1       -0.4948
      5 C           2.5871    7.1747   10.8507 C.3     1  LIG1       -0.0397
      6 H           3.5394    7.4087   10.8504 H       1  LIG1        0.0278
      7 H           2.4283    6.4515   11.4928 H       1  LIG1        0.0278
      8 H           2.0586    7.9591   11.1037 H       1  LIG1        0.0278
      9 C           2.1813    6.7182    9.4693 C.ar    1  LIG1       -0.0503
     10 C           2.6089    5.4796    8.9874 C.ar    1  LIG1       -0.0570
     11 H           3.1398    4.9197    9.5437 H       1  LIG1        0.0621
     12 C           2.2753    5.0524    7.7148 C.ar    1  LIG1       -0.0362
     13 H           2.5682    4.2054    7.3994 H       1  LIG1        0.0637
     14 C           1.5045    5.8804    6.9010 C.ar    1  LIG1        0.0932
     15 C           2.6962    5.5283    4.4492 C.2     1  LIG1        0.0754
     16 C           3.4128    4.4434    4.1319 C.2     1  LIG1       -0.0509
     17 H           3.0455    3.5821    4.2931 H       1  LIG1        0.0597
     18 C           4.7559    4.5515    3.5399 C.3     1  LIG1        0.0261
     19 C           5.5118    3.2605    3.4345 C.ar    1  LIG1       -0.0365
     20 C           6.7100    3.0468    4.1013 C.ar    1  LIG1       -0.0577
     21 H           7.1034    3.7518    4.6024 H       1  LIG1        0.0621
     22 C           7.3384    1.8091    4.0407 C.ar    1  LIG1       -0.0615
     23 H           8.1537    1.6717    4.5088 H       1  LIG1        0.0618
     24 C           6.7875    0.7732    3.3034 C.ar    1  LIG1       -0.0617
     25 H           7.2210   -0.0706    3.2638 H       1  LIG1        0.0618
     26 C           1.3944    7.5181    8.6442 C.ar    1  LIG1       -0.0570
     27 H           1.0824    8.3552    8.9674 H       1  LIG1        0.0621
     28 C           1.0576    7.1149    7.3554 C.ar    1  LIG1       -0.0362
     29 H           0.5303    7.6741    6.7957 H       1  LIG1        0.0637
     30 C           3.2306    6.9115    4.1413 C.3     1  LIG1        0.0268
     31 H           2.7254    7.6064    4.6526 H       1  LIG1        0.0410
     32 C           4.7246    6.9339    4.5224 C.3     1  LIG1       -0.0364
     33 H           5.1058    7.8232    4.3137 H       1  LIG1        0.0278
     34 H           4.8200    6.7786    5.4959 H       1  LIG1        0.0278
     35 C           5.4797    5.8732    3.7675 C.3     1  LIG1       -0.0184
     36 H           6.4661    5.8242    3.9257 H       1  LIG1        0.0319
     37 C           5.0042    5.5875    2.3721 C.3     1  LIG1        0.0052
     38 H           5.7203    5.3320    1.7232 H       1  LIG1        0.0365
     39 C           4.9641    2.2128    2.6849 C.ar    1  LIG1       -0.0577
     40 H           4.1499    2.3491    2.2139 H       1  LIG1        0.0621
     41 C           5.5928    0.9805    2.6211 C.ar    1  LIG1       -0.0615
     42 H           5.2095    0.2770    2.1112 H       1  LIG1        0.0618
     43 C           3.9014    6.3879    1.8063 C.ar    1  LIG1        0.0026
     44 C           3.6954    6.4477    0.4164 C.ar    1  LIG1        0.1238
     45 C           4.4197    5.7551   -1.7490 C.3     1  LIG1        0.0788
     46 H           3.5298    5.4115   -1.9731 H       1  LIG1        0.0660
     47 H           5.1025    5.1901   -2.1671 H       1  LIG1        0.0660
     48 H           4.5081    6.6732   -2.0781 H       1  LIG1        0.0660
     49 C           2.6551    7.2069   -0.1105 C.ar    1  LIG1       -0.0197
     50 H           2.5156    7.2409   -1.0499 H       1  LIG1        0.0654
     51 C           1.8206    7.9169    0.7493 C.ar    1  LIG1       -0.0580
     52 H           1.1133    8.4390    0.3891 H       1  LIG1        0.0619
     53 C           2.0055    7.8723    2.1178 C.ar    1  LIG1       -0.0575
     54 H           1.4295    8.3605    2.6943 H       1  LIG1        0.0621
     55 C           3.0448    7.1048    2.6488 C.ar    1  LIG1       -0.0317
@<TRIPOS>BOND
     1    47    45    1
     2    48    45    1
     3    46    45    1
     4    45     4    1
     5    50    49    1
     6     4    44    1
     7    49    44   ar
     8    49    51   ar
     9    52    51    1
    10    44    43   ar
    11    51    53   ar
    12    38    37    1
    13    43    37    1
    14    43    55   ar
    15    42    41    1
    16    53    55   ar
    17    53    54    1
    18    40    39    1
    19    37    18    1
    20    37    35    1
    21    41    39   ar
    22    41    24   ar
    23    55    30    1
    24    39    19   ar
    25    25    24    1
    26    24    22   ar
    27    19    18    1
    28    19    20   ar
    29    18    35    1
    30    18    16    1
    31    35    36    1
    32    35    32    1
    33    22    20   ar
    34    22    23    1
    35    20    21    1
    36    16    17    1
    37    16    15    2
    38    30    15    1
    39    30    32    1
    40    30    31    1
    41    33    32    1
    42    15     1    1
    43    32    34    1
    44     3     1    2
    45     1     2    2
    46     1    14    1
    47    29    28    1
    48    14    28   ar
    49    14    12   ar
    50    28    26   ar
    51    13    12    1
    52    12    10   ar
    53    26    27    1
    54    26     9   ar
    55    10     9   ar
    56    10    11    1
    57     9     5    1
    58     6     5    1
    59     5     8    1
    60     5     7    1
