@<TRIPOS>MOLECULE
brkrm02
 31 31 0 0 0
SMALL
GASTEIGER

@<TRIPOS>ATOM
      1 O          -1.9714    0.7881    7.7270 O.3     1  LIG1       -0.5025
      2 H          -2.5301    0.3722    8.2121 H       1  LIG1        0.2923
      3 O          -1.9781   -0.0578   10.1849 O.2     1  LIG1       -0.2801
      4 O          -0.2065    0.2102   11.9894 O.3     1  LIG1       -0.5031
      5 H          -0.9601   -0.1747   11.8794 H       1  LIG1        0.2923
      6 O           2.7326    3.8911    7.3918 O.2     1  LIG1       -0.2449
      7 O           2.7418    1.8976    6.3651 O.3     1  LIG1       -0.4644
      8 O          -0.2676    3.2141    6.0560 O.2     1  LIG1       -0.2448
      9 O          -0.2245    1.0331    5.5537 O.3     1  LIG1       -0.4644
     10 C          -0.8574    1.0093    8.4544 C.ar    1  LIG1        0.1823
     11 C          -0.9375    0.5396    9.8107 C.ar    1  LIG1        0.2618
     12 C           0.1029    0.7115   10.7866 C.ar    1  LIG1        0.1676
     13 C           1.3393    1.2958   10.6663 C.ar    1  LIG1       -0.0125
     14 H           1.8572    1.2798   11.4628 H       1  LIG1        0.0658
     15 C           1.9741    1.9120    9.5792 C.ar    1  LIG1       -0.0320
     16 C           1.4389    2.0778    8.3014 C.ar    1  LIG1        0.0796
     17 C           0.1802    1.6632    7.8074 C.ar    1  LIG1        0.1184
     18 C           3.3725    2.4095    9.8752 C.3     1  LIG1       -0.0388
     19 H           3.9212    2.3406    9.0666 H       1  LIG1        0.0278
     20 H           3.7691    1.8646   10.5862 H       1  LIG1        0.0278
     21 H           3.3322    3.3448   10.1640 H       1  LIG1        0.0278
     22 C           2.3549    2.7544    7.3081 C.2     1  LIG1        0.3401
     23 C           3.6696    2.4289    5.3834 C.3     1  LIG1        0.0820
     24 H           3.9157    1.7229    4.7509 H       1  LIG1        0.0661
     25 H           4.4743    2.7553    5.8381 H       1  LIG1        0.0661
     26 H           3.2453    3.1678    4.8996 H       1  LIG1        0.0661
     27 C          -0.1387    2.0663    6.3798 C.2     1  LIG1        0.3434
     28 C          -0.4833    1.3730    4.1707 C.3     1  LIG1        0.0820
     29 H          -0.6713    0.5562    3.6627 H       1  LIG1        0.0661
     30 H           0.3020    1.8200    3.7911 H       1  LIG1        0.0661
     31 H          -1.2565    1.9742    4.1209 H       1  LIG1        0.0661
@<TRIPOS>BOND
     1    29    28    1
     2    30    28    1
     3    31    28    1
     4    28     9    1
     5    24    23    1
     6    26    23    1
     7    23    25    1
     8    23     7    1
     9     9    27    1
    10     8    27    2
    11     7    22    1
    12    27    17    1
    13    22     6    2
    14    22    16    1
    15     1     2    1
    16     1    10    1
    17    17    16   ar
    18    17    10   ar
    19    16    15   ar
    20    10    11   ar
    21    19    18    1
    22    15    18    1
    23    15    13   ar
    24    11     3    2
    25    11    12   ar
    26    18    21    1
    27    18    20    1
    28    13    12   ar
    29    13    14    1
    30    12     4    1
    31     5     4    1
