@<TRIPOS>MOLECULE
C20 H25 N3 O2
 50 52 0 0 0
SMALL
GASTEIGER

@<TRIPOS>ATOM
      1 N           1.5097    3.0319   10.1177 N.ar    1  LIG1       -0.2389
      2 C           1.9516    1.7714    9.9787 C.ar    1  LIG1        0.0297
      3 H           1.3191    1.0684   10.0693 H       1  LIG1        0.0830
      4 C           3.2559    1.4285    9.7142 C.ar    1  LIG1       -0.0435
      5 H           3.5166    0.5202    9.6166 H       1  LIG1        0.0633
      6 C           4.1798    2.4613    9.5945 C.ar    1  LIG1       -0.0570
      7 H           5.0910    2.2657    9.4102 H       1  LIG1        0.0619
      8 C           3.7719    3.7668    9.7436 C.ar    1  LIG1       -0.0203
      9 H           4.3927    4.4826    9.6745 H       1  LIG1        0.0652
     10 C           2.4101    4.0134   10.0015 C.ar    1  LIG1        0.1377
     11 N           1.9145    5.2973   10.1081 N.pl3   1  LIG1       -0.2288
     12 C           0.5860    5.6202   10.6219 C.3     1  LIG1        0.0332
     13 H           0.6450    5.8659   11.5792 H       1  LIG1        0.0482
     14 H          -0.0084    4.8330   10.5388 H       1  LIG1        0.0482
     15 C           0.0188    6.7866    9.8202 C.3     1  LIG1       -0.0334
     16 H          -0.8240    7.0949   10.2381 H       1  LIG1        0.0282
     17 H          -0.1876    6.4847    8.9003 H       1  LIG1        0.0282
     18 C           1.0116    7.9445    9.7643 C.3     1  LIG1       -0.0269
     19 H           1.0910    8.3485   10.6646 H       1  LIG1        0.0287
     20 H           0.6670    8.6388    9.1486 H       1  LIG1        0.0287
     21 C           2.3996    7.4936    9.2898 C.3     1  LIG1        0.0736
     22 H           3.0319    8.2509    9.4535 H       1  LIG1        0.0569
     23 N           2.8270    6.3645   10.1533 N.am    1  LIG1       -0.1767
     24 C           3.3558    6.7297   11.4005 C.2     1  LIG1        0.4206
     25 O           3.9481    7.7700   11.5652 O.2     1  LIG1       -0.2246
     26 O           3.1626    5.7694   12.3089 O.3     1  LIG1       -0.4435
     27 C           3.6678    5.9630   13.6929 C.3     1  LIG1        0.1068
     28 C           3.1107    4.7526   14.4164 C.3     1  LIG1       -0.0253
     29 H           2.1314    4.7839   14.3994 H       1  LIG1        0.0268
     30 H           3.4216    4.7557   15.3458 H       1  LIG1        0.0268
     31 H           3.4191    3.9355   13.9716 H       1  LIG1        0.0268
     32 C           5.1848    5.9431   13.6839 C.3     1  LIG1       -0.0253
     33 H           5.4982    5.1202   13.2541 H       1  LIG1        0.0268
     34 H           5.5174    5.9777   14.6051 H       1  LIG1        0.0268
     35 H           5.5186    6.7190   13.1868 H       1  LIG1        0.0268
     36 C           3.1017    7.2364   14.2916 C.3     1  LIG1       -0.0253
     37 H           3.5020    8.0125   13.8468 H       1  LIG1        0.0268
     38 H           3.3073    7.2667   15.2493 H       1  LIG1        0.0268
     39 H           2.1300    7.2529   14.1654 H       1  LIG1        0.0268
     40 C           2.5089    7.1198    7.8181 C.ar    1  LIG1       -0.0252
     41 C           1.5122    7.4336    6.8972 C.ar    1  LIG1       -0.0567
     42 H           0.7073    7.8380    7.1991 H       1  LIG1        0.0621
     43 C           1.6768    7.1646    5.5426 C.ar    1  LIG1       -0.0614
     44 H           0.9829    7.3792    4.9303 H       1  LIG1        0.0618
     45 C           2.8432    6.5876    5.0838 C.ar    1  LIG1       -0.0617
     46 H           2.9545    6.4017    4.1589 H       1  LIG1        0.0618
     47 C           3.8496    6.2818    5.9839 C.ar    1  LIG1       -0.0614
     48 H           4.6587    5.8919    5.6742 H       1  LIG1        0.0618
     49 C           3.6817    6.5428    7.3380 C.ar    1  LIG1       -0.0567
     50 H           4.3781    6.3241    7.9461 H       1  LIG1        0.0621
@<TRIPOS>BOND
     1    46    45    1
     2    44    43    1
     3    45    43   ar
     4    45    47   ar
     5    43    41   ar
     6    48    47    1
     7    47    49   ar
     8    41    42    1
     9    41    40   ar
    10    49    40   ar
    11    49    50    1
    12    40    21    1
    13    17    15    1
    14    20    18    1
    15    21    22    1
    16    21    18    1
    17    21    23    1
    18     7     6    1
    19     6     4   ar
    20     6     8   ar
    21     5     4    1
    22     9     8    1
    23     4     2   ar
    24     8    10   ar
    25    18    15    1
    26    18    19    1
    27    15    16    1
    28    15    12    1
    29     2     3    1
    30     2     1   ar
    31    10    11    1
    32    10     1   ar
    33    11    23    1
    34    11    12    1
    35    23    24   am
    36    14    12    1
    37    12    13    1
    38    24    25    2
    39    24    26    1
    40    26    27    1
    41    35    32    1
    42    33    32    1
    43    32    27    1
    44    32    34    1
    45    27    36    1
    46    27    28    1
    47    37    36    1
    48    31    28    1
    49    39    36    1
    50    36    38    1
    51    29    28    1
    52    28    30    1
