@<TRIPOS>MOLECULE
1556206.cif
 43 45 0 0 0
SMALL
GASTEIGER

@<TRIPOS>ATOM
      1 C          -0.7836    5.6173    1.1346 C.ar    1  LIG1       -0.0540
      2 H          -0.0298    5.3127    1.5856 H       1  LIG1        0.0622
      3 C          -0.7518    6.8202    0.4768 C.ar    1  LIG1       -0.0245
      4 H           0.0119    7.3515    0.4671 H       1  LIG1        0.0648
      5 C          -1.8974    7.2008   -0.1641 C.ar    1  LIG1        0.1292
      6 C          -3.0033    5.3616    0.4324 C.ar    1  LIG1        0.0327
      7 H          -3.7829    4.8553    0.4089 H       1  LIG1        0.0833
      8 C          -1.9462    4.8532    1.1278 C.ar    1  LIG1       -0.0242
      9 C          -2.0406    3.5151    1.8206 C.3     1  LIG1        0.0082
     10 H          -2.9197    3.1221    1.6357 H       1  LIG1        0.0369
     11 C          -1.8378    3.5973    3.3593 C.3     1  LIG1       -0.0234
     12 H          -1.6110    4.5018    3.6286 H       1  LIG1        0.0290
     13 H          -2.6423    3.3249    3.8274 H       1  LIG1        0.0290
     14 C          -0.6872    2.6387    3.6599 C.3     1  LIG1        0.0535
     15 H          -0.1561    2.9277    4.4319 H       1  LIG1        0.0524
     16 C          -0.9457    2.5285    1.3772 C.3     1  LIG1        0.0597
     17 H          -0.6026    2.7364    0.4833 H       1  LIG1        0.0530
     18 C          -1.1864    1.2175    3.8080 C.3     1  LIG1        0.0664
     19 H          -0.4296    0.6092    3.8258 H       1  LIG1        0.0578
     20 H          -1.6617    1.1280    4.6485 H       1  LIG1        0.0578
     21 C          -1.4519    1.1072    1.4734 C.3     1  LIG1        0.0670
     22 H          -2.1053    0.9492    0.7742 H       1  LIG1        0.0578
     23 H          -0.7150    0.4918    1.3399 H       1  LIG1        0.0578
     24 C           1.3863    2.6491    2.2177 C.2     1  LIG1        0.4040
     25 C           3.5045    2.6574    3.4359 C.3     1  LIG1        0.1068
     26 C           4.0166    3.9300    2.7897 C.3     1  LIG1       -0.0253
     27 H           3.7949    3.9258    1.8555 H       1  LIG1        0.0268
     28 H           4.9703    3.9799    2.8932 H       1  LIG1        0.0268
     29 H           3.6089    4.6900    3.2116 H       1  LIG1        0.0268
     30 C           4.0644    1.4077    2.7833 C.3     1  LIG1       -0.0253
     31 H           3.6149    0.6352    3.1324 H       1  LIG1        0.0268
     32 H           5.0041    1.3433    2.9675 H       1  LIG1        0.0268
     33 H           3.9281    1.4545    1.8329 H       1  LIG1        0.0268
     34 C           3.7581    2.6844    4.9265 C.3     1  LIG1       -0.0253
     35 H           3.3613    3.4715    5.3047 H       1  LIG1        0.0268
     36 H           4.7048    2.6927    5.0897 H       1  LIG1        0.0268
     37 H           3.3712    1.9047    5.3305 H       1  LIG1        0.0268
     38 CL         -1.8975    8.7480   -0.9989 Cl      1  LIG1       -0.0620
     39 N          -3.0102    6.5312   -0.2203 N.ar    1  LIG1       -0.2433
     40 N           0.0597    2.7385    2.4099 N.am    1  LIG1       -0.2564
     41 O          -2.0466    0.8671    2.7403 O.3     1  LIG1       -0.3761
     42 O           1.8889    2.6532    1.1118 O.2     1  LIG1       -0.2262
     43 O           2.0312    2.6272    3.3840 O.3     1  LIG1       -0.4445
@<TRIPOS>BOND
     1    38     5    1
     2    39     5   ar
     3    39     6   ar
     4     5     3   ar
     5     7     6    1
     6     6     8   ar
     7     4     3    1
     8     3     1   ar
     9    17    16    1
    10    22    21    1
    11    42    24    2
    12     8     1   ar
    13     8     9    1
    14     1     2    1
    15    23    21    1
    16    16    21    1
    17    16     9    1
    18    16    40    1
    19    21    41    1
    20    10     9    1
    21     9    11    1
    22    33    30    1
    23    27    26    1
    24    24    40   am
    25    24    43    1
    26    40    14    1
    27    41    18    1
    28    30    32    1
    29    30    31    1
    30    30    25    1
    31    26    28    1
    32    26    29    1
    33    26    25    1
    34    11    12    1
    35    11    14    1
    36    11    13    1
    37    43    25    1
    38    25    34    1
    39    14    18    1
    40    14    15    1
    41    18    19    1
    42    18    20    1
    43    34    36    1
    44    34    35    1
    45    34    37    1
