@<TRIPOS>MOLECULE
D-1--27-6--2 4-(Me2N)-pyridine, 4-Br-PhCOOH
 34 34 0 0 0
SMALL
GASTEIGER

@<TRIPOS>ATOM
      1 BR         13.3330    1.0561    3.5014 Br      1  LIG1       -0.0503
      2 N           6.4200    6.3811    6.9955 N.pl3   2  LIG2       -0.3411
      3 H           7.0409    5.9069    6.9012 H       2  LIG2        0.1462
      4 C           6.1945    6.9647    8.1862 C.2     2  LIG2       -0.0084
      5 H           6.8002    6.8072    8.9013 H       2  LIG2        0.0779
      6 C           5.1200    7.7751    8.3939 C.2     2  LIG2       -0.0274
      7 H           4.9865    8.1782    9.2438 H       2  LIG2        0.0648
      8 C           4.2000    8.0169    7.3395 C.2     2  LIG2        0.0282
      9 N           3.1029    8.7633    7.5136 N.pl3   2  LIG2       -0.3362
     10 C           2.8264    9.3747    8.8092 C.3     2  LIG2        0.0004
     11 H           2.8125    8.6814    9.5016 H       2  LIG2        0.0428
     12 H           1.9556    9.8236    8.7797 H       2  LIG2        0.0428
     13 H           3.5251   10.0303    9.0167 H       2  LIG2        0.0428
     14 C           2.1854    9.0124    6.4077 C.3     2  LIG2        0.0004
     15 H           1.8504    8.1586    6.0627 H       2  LIG2        0.0428
     16 H           2.6562    9.4911    5.6943 H       2  LIG2        0.0428
     17 H           1.4337    9.5556    6.7232 H       2  LIG2        0.0428
     18 C           4.4978    7.4072    6.0957 C.2     2  LIG2       -0.0409
     19 H           3.9317    7.5597    5.3481 H       2  LIG2        0.0609
     20 C           5.5926    6.6019    5.9637 C.3     2  LIG2        0.0624
     21 H           5.7708    6.1912    5.1259 H       2  LIG2        0.0564
     22 C           9.8876    3.8110    5.0348 C.ar    1  LIG1        0.0632
     23 C           8.7053    4.6193    5.5288 C.2     1  LIG1        0.3865
     24 O           8.6860    4.9180    6.7591 O.co2   1  LIG1       -0.2406
     25 O           7.8369    4.9268    4.6956 O.co2   1  LIG1       -0.2406
     26 C           9.8608    3.2861    3.7470 C.ar    1  LIG1       -0.0466
     27 H           9.1243    3.4780    3.1787 H       1  LIG1        0.0626
     28 C          10.8931    2.4869    3.2800 C.ar    1  LIG1       -0.0470
     29 H          10.8649    2.1267    2.4015 H       1  LIG1        0.0629
     30 C          11.9628    2.2230    4.1142 C.ar    1  LIG1        0.0179
     31 C          12.0366    2.7583    5.3885 C.ar    1  LIG1       -0.0470
     32 H          12.7886    2.5866    5.9424 H       1  LIG1        0.0629
     33 C          10.9903    3.5517    5.8446 C.ar    1  LIG1       -0.0466
     34 H          11.0278    3.9216    6.7183 H       1  LIG1        0.0626
@<TRIPOS>BOND
     1    29    28    1
     2    27    26    1
     3    28    26   ar
     4    28    30   ar
     5     1    30    1
     6    26    22   ar
     7    30    31   ar
     8    25    23   ar
     9    22    23    1
    10    22    33   ar
    11    21    20    1
    12    19    18    1
    13    31    33   ar
    14    31    32    1
    15    23    24   ar
    16    16    14    1
    17    33    34    1
    18    20    18    1
    19    20     2    1
    20    15    14    1
    21    18     8    2
    22    14    17    1
    23    14     9    1
    24     3     2    1
    25     2     4    1
    26     8     9    1
    27     8     6    1
    28     9    10    1
    29     4     6    2
    30     4     5    1
    31     6     7    1
    32    12    10    1
    33    10    13    1
    34    10    11    1
