@<TRIPOS>MOLECULE
C15 H11 N O2 S2
 31 33 0 0 0
SMALL
GASTEIGER

@<TRIPOS>ATOM
      1 S           1.5702   18.9075    6.8110 S.3     1  LIG1        0.0272
      2 S           2.5867   20.0684    5.5115 S.3     1  LIG1       -0.0366
      3 O           3.9897   17.1643    7.5446 O.2     1  LIG1       -0.2686
      4 O           0.0994   16.7584    5.1576 O.2     1  LIG1       -0.2686
      5 N           1.9738   17.3218    6.3989 N.am    1  LIG1       -0.1645
      6 C           3.0575   15.2851    6.3135 C.ar    1  LIG1        0.0503
      7 C           1.8714   15.1605    5.6053 C.ar    1  LIG1        0.0503
      8 C           1.1565   16.4538    5.6397 C.2     1  LIG1        0.2643
      9 C           3.1493   16.6596    6.8567 C.2     1  LIG1        0.2643
     10 C           1.5530   20.3087    4.0752 C.ar    1  LIG1        0.0201
     11 C           3.9329   14.2305    6.4270 C.ar    1  LIG1       -0.0489
     12 H           4.7268   14.3081    6.9044 H       1  LIG1        0.0625
     13 C           1.5207   13.9834    4.9885 C.ar    1  LIG1       -0.0489
     14 H           0.7219   13.9037    4.5197 H       1  LIG1        0.0625
     15 C           0.1556   20.7993    1.7171 C.ar    1  LIG1       -0.0504
     16 C           2.0999   21.0823    3.0875 C.ar    1  LIG1       -0.0472
     17 H           2.9462   21.4486    3.2057 H       1  LIG1        0.0629
     18 C           0.2990   19.7782    3.8928 C.ar    1  LIG1       -0.0472
     19 H          -0.0903   19.2561    4.5565 H       1  LIG1        0.0629
     20 C           2.4005   12.9270    5.0934 C.ar    1  LIG1       -0.0610
     21 H           2.1958   12.1186    4.6810 H       1  LIG1        0.0618
     22 C          -0.3782   20.0256    2.7181 C.ar    1  LIG1       -0.0578
     23 H          -1.2233   19.6575    2.5999 H       1  LIG1        0.0621
     24 C           1.4081   21.3201    1.9222 C.ar    1  LIG1       -0.0578
     25 H           1.7978   21.8440    1.2600 H       1  LIG1        0.0621
     26 C           3.5802   13.0468    5.8001 C.ar    1  LIG1       -0.0610
     27 H           4.1520   12.3163    5.8573 H       1  LIG1        0.0618
     28 C          -0.6023   21.0539    0.4320 C.3     1  LIG1       -0.0397
     29 H          -0.6711   20.2356   -0.0665 H       1  LIG1        0.0278
     30 H          -0.1338   21.7092   -0.0916 H       1  LIG1        0.0278
     31 H          -1.4821   21.3767    0.6371 H       1  LIG1        0.0278
@<TRIPOS>BOND
     1    30    28    1
     2    29    28    1
     3    28    31    1
     4    28    15    1
     5    25    24    1
     6    15    24   ar
     7    15    22   ar
     8    24    16   ar
     9    23    22    1
    10    22    18   ar
    11    16    17    1
    12    16    10   ar
    13    18    10   ar
    14    18    19    1
    15    10     2    1
    16    14    13    1
    17    21    20    1
    18    13    20   ar
    19    13     7   ar
    20    20    26   ar
    21     4     8    2
    22     2     1    1
    23     7     8    1
    24     7     6   ar
    25     8     5   am
    26    26    27    1
    27    26    11   ar
    28     6    11   ar
    29     6     9    1
    30     5     1    1
    31     5     9   am
    32    11    12    1
    33     9     3    2
