@<TRIPOS>MOLECULE
C19 H20 O11
 50 51 0 0 0
SMALL
GASTEIGER

@<TRIPOS>ATOM
      1 O           3.7215    4.2112    7.8935 O.3     1  LIG1       -0.4454
      2 O           4.4506    5.8952    6.6718 O.2     1  LIG1       -0.2449
      3 O           2.5760   10.0710    8.9381 O.3     1  LIG1       -0.5032
      4 H           2.8017   10.2278    8.1655 H       1  LIG1        0.2923
      5 O           1.6066    6.4521   11.8535 O.3     1  LIG1       -0.5030
      6 H           1.3918    7.0823   12.3320 H       1  LIG1        0.2923
      7 O           1.6035    9.1325   11.3201 O.3     1  LIG1       -0.5009
      8 H           1.7389    9.9087   11.0931 H       1  LIG1        0.2924
      9 O           2.5196    2.0674   11.5080 O.2     1  LIG1       -0.2453
     10 O           5.9012    6.2011   10.0320 O.3     1  LIG1       -0.4618
     11 O           0.4565    3.0864    8.6515 O.3     1  LIG1       -0.4623
     12 O           4.7249    2.0790   11.9109 O.3     1  LIG1       -0.4647
     13 O           5.0377    7.0495   11.9190 O.2     1  LIG1       -0.2456
     14 O           1.1409    4.5716    7.1137 O.2     1  LIG1       -0.2466
     15 C           3.1677    6.4644    8.5824 C.ar    1  LIG1        0.0700
     16 C           2.6355    8.7238    9.1661 C.ar    1  LIG1        0.1628
     17 C           2.1373    8.2869   10.3903 C.ar    1  LIG1        0.2009
     18 C           3.8010    5.5419    7.6359 C.2     1  LIG1        0.3405
     19 C           2.6563    5.9982    9.7998 C.ar    1  LIG1        0.0236
     20 C           3.1592    7.8237    8.2573 C.ar    1  LIG1       -0.0020
     21 H           3.4995    8.1174    7.4433 H       1  LIG1        0.0663
     22 C           2.1319    6.9227   10.6934 C.ar    1  LIG1        0.1667
     23 C           2.6826    3.7554    8.7719 C.3     1  LIG1        0.2102
     24 H           2.8448    2.8090    8.9678 H       1  LIG1        0.0863
     25 C           3.5948    2.6242   11.5033 C.2     1  LIG1        0.3358
     26 C           2.6664    4.5228   10.1076 C.3     1  LIG1        0.0681
     27 H           1.8189    4.3126   10.5527 H       1  LIG1        0.0443
     28 C           5.2316    6.1250   11.1664 C.2     1  LIG1        0.3324
     29 C           3.7810    4.0411   11.0146 C.2     1  LIG1        0.0549
     30 C           1.3432    3.8655    8.0565 C.2     1  LIG1        0.3493
     31 C           4.8353    4.7081   11.4609 C.2     1  LIG1        0.0332
     32 H           5.4017    4.2385   12.0290 H       1  LIG1        0.0694
     33 C           6.4195    7.5390    9.7181 C.3     1  LIG1        0.0900
     34 H           7.0385    7.8322   10.4049 H       1  LIG1        0.0695
     35 H           5.6933    8.1790    9.6604 H       1  LIG1        0.0695
     36 C          -1.5719    1.8645    8.6405 C.3     1  LIG1       -0.0306
     37 H          -2.4742    1.8253    8.3144 H       1  LIG1        0.0262
     38 H          -1.5802    1.9089    9.5995 H       1  LIG1        0.0262
     39 H          -1.0961    1.0794    8.3605 H       1  LIG1        0.0262
     40 C          -0.9006    3.0708    8.0950 C.3     1  LIG1        0.0898
     41 H          -0.8685    3.0309    7.1265 H       1  LIG1        0.0694
     42 H          -1.3819    3.8722    8.3556 H       1  LIG1        0.0694
     43 C           4.6638    0.7255   12.4189 C.3     1  LIG1        0.0820
     44 H           4.2574    0.1553   11.7625 H       1  LIG1        0.0661
     45 H           4.1419    0.7095   13.2244 H       1  LIG1        0.0661
     46 H           5.5524    0.4143   12.6071 H       1  LIG1        0.0661
     47 C           7.1078    7.4200    8.4193 C.3     1  LIG1       -0.0306
     48 H           6.4849    7.1200    7.7532 H       1  LIG1        0.0262
     49 H           7.8257    6.7870    8.4942 H       1  LIG1        0.0262
     50 H           7.4609    8.2756    8.1649 H       1  LIG1        0.0262
@<TRIPOS>BOND
     1     2    18    2
     2    14    30    2
     3    41    40    1
     4    21    20    1
     5    18     1    1
     6    18    15    1
     7    48    47    1
     8     1    23    1
     9    30    11    1
    10    30    23    1
    11    40    42    1
    12    40    36    1
    13    40    11    1
    14    50    47    1
    15     4     3    1
    16    20    15   ar
    17    20    16   ar
    18    37    36    1
    19    39    36    1
    20    47    49    1
    21    47    33    1
    22    15    19   ar
    23    36    38    1
    24    23    24    1
    25    23    26    1
    26     3    16    1
    27    16    17   ar
    28    35    33    1
    29    33    10    1
    30    33    34    1
    31    19    26    1
    32    19    22   ar
    33    10    28    1
    34    26    27    1
    35    26    29    1
    36    17    22   ar
    37    17     7    1
    38    22     5    1
    39    29    31    2
    40    29    25    1
    41     8     7    1
    42    28    31    1
    43    28    13    2
    44    31    32    1
    45    25     9    2
    46    25    12    1
    47    44    43    1
    48     5     6    1
    49    12    43    1
    50    43    46    1
    51    43    45    1
