@<TRIPOS>MOLECULE
1557907.cif
 71 76 0 0 0
SMALL
GASTEIGER

@<TRIPOS>ATOM
      1 O           6.5369    0.2704   11.8253 O.2     1  LIG1       -0.2749
      2 C           6.1352    1.4188   12.0467 C.2     1  LIG1        0.2236
      3 N           6.5801    2.4990   11.3601 N.am    1  LIG1       -0.2959
      4 C           7.5283    2.3175   10.2267 C.3     1  LIG1        0.0207
      5 H           7.6152    3.2091    9.7824 H       1  LIG1        0.0495
      6 C           6.9885    1.3578    9.1722 C.3     1  LIG1       -0.0467
      7 H           6.9256    0.4566    9.5522 H       1  LIG1        0.0247
      8 H           7.5934    1.3457    8.4013 H       1  LIG1        0.0247
      9 H           6.0995    1.6540    8.8853 H       1  LIG1        0.0247
     10 C           8.9217    1.9427   10.7265 C.3     1  LIG1       -0.0467
     11 H           9.2623    2.6542   11.3081 H       1  LIG1        0.0247
     12 H           9.5237    1.8297    9.9617 H       1  LIG1        0.0247
     13 H           8.8730    1.1039   11.2309 H       1  LIG1        0.0247
     14 C           6.1212    3.8738   11.6453 C.3     1  LIG1        0.0207
     15 H           5.5969    3.8417   12.4961 H       1  LIG1        0.0495
     16 C           5.1822    4.3726   10.5527 C.3     1  LIG1       -0.0467
     17 H           5.6877    4.5073    9.7238 H       1  LIG1        0.0247
     18 H           4.7791    5.2215   10.8308 H       1  LIG1        0.0247
     19 H           4.4764    3.7100   10.4007 H       1  LIG1        0.0247
     20 C           7.2915    4.8223   11.8698 C.3     1  LIG1       -0.0467
     21 H           7.8407    4.4935   12.6120 H       1  LIG1        0.0247
     22 H           6.9513    5.7155   12.0860 H       1  LIG1        0.0247
     23 H           7.8358    4.8681   11.0562 H       1  LIG1        0.0247
     24 C           5.1606    1.6088   13.1842 C.3     1  LIG1        0.0641
     25 C           5.5810    2.2320   14.5970 C.3     1  LIG1        0.0183
     26 C           4.9823    0.9454   15.2948 C.3     1  LIG1       -0.0115
     27 H           5.4275    0.4245   16.0232 H       1  LIG1        0.0323
     28 C           4.5619    0.3704   13.9025 C.3     1  LIG1       -0.0172
     29 H           4.6919   -0.5777   13.6123 H       1  LIG1        0.0317
     30 C           3.1752    1.0864   14.0280 C.3     1  LIG1       -0.0183
     31 H           2.2920    0.6659   13.8203 H       1  LIG1        0.0317
     32 C           3.7642    2.3411   13.3019 C.3     1  LIG1       -0.0172
     33 H           3.3139    2.8500   12.5682 H       1  LIG1        0.0317
     34 C           4.1871    2.9331   14.6889 C.3     1  LIG1       -0.0115
     35 H           4.0419    3.8807   14.9738 H       1  LIG1        0.0323
     36 C           3.5835    1.6705   15.4176 C.3     1  LIG1        0.0584
     37 C           6.8967    2.8440   14.9066 C.ar    1  LIG1       -0.0395
     38 C           6.9915    4.1201   15.4563 C.ar    1  LIG1       -0.0568
     39 H           6.1989    4.6198   15.6133 H       1  LIG1        0.0621
     40 C           8.2212    4.6752   15.7788 C.ar    1  LIG1       -0.0441
     41 H           8.2723    5.5472   16.1524 H       1  LIG1        0.0630
     42 C           9.3780    3.9390   15.5482 C.ar    1  LIG1        0.0518
     43 C           9.3065    2.6674   14.9721 C.ar    1  LIG1       -0.0441
     44 H          10.1014    2.1758   14.8021 H       1  LIG1        0.0630
     45 C           8.0774    2.1285   14.6517 C.ar    1  LIG1       -0.0568
     46 H           8.0297    1.2665   14.2551 H       1  LIG1        0.0621
     47 C          10.6542    4.4857   15.9435 C.1     1  LIG1        0.0992
     48 N          11.6528    4.9292   16.2946 N.1     1  LIG1       -0.1909
     49 C           2.6466    1.7034   16.5930 C.2     1  LIG1        0.2231
     50 O           1.4960    1.2721   16.4533 O.2     1  LIG1       -0.2749
     51 N           3.0897    2.2373   17.7568 N.am    1  LIG1       -0.2960
     52 C           4.4726    2.7392   17.9306 C.3     1  LIG1        0.0207
     53 H           4.9512    2.5831   17.0666 H       1  LIG1        0.0495
     54 C           5.2147    1.9419   19.0025 C.3     1  LIG1       -0.0467
     55 H           4.7843    2.0837   19.8716 H       1  LIG1        0.0247
     56 H           6.1465    2.2425   19.0468 H       1  LIG1        0.0247
     57 H           5.1893    0.9887   18.7771 H       1  LIG1        0.0247
     58 C           4.5069    4.2367   18.1936 C.3     1  LIG1       -0.0467
     59 H           4.0129    4.7037   17.4878 H       1  LIG1        0.0247
     60 H           5.4368    4.5459   18.2010 H       1  LIG1        0.0247
     61 H           4.0930    4.4255   19.0617 H       1  LIG1        0.0247
     62 C           2.1751    2.3812   18.9210 C.3     1  LIG1        0.0207
     63 H           2.7099    2.8058   19.6515 H       1  LIG1        0.0495
     64 C           1.6981    1.0455   19.4571 C.3     1  LIG1       -0.0467
     65 H           1.1656    0.5899   18.7720 H       1  LIG1        0.0247
     66 H           1.1480    1.1914   20.2549 H       1  LIG1        0.0247
     67 H           2.4722    0.4919   19.6908 H       1  LIG1        0.0247
     68 C           1.0304    3.3317   18.6158 C.3     1  LIG1       -0.0467
     69 H           1.3910    4.1856   18.2976 H       1  LIG1        0.0247
     70 H           0.5047    3.4817   19.4290 H       1  LIG1        0.0247
     71 H           0.4572    2.9409   17.9236 H       1  LIG1        0.0247
@<TRIPOS>BOND
     1     8     6    1
     2     9     6    1
     3     6     7    1
     4     6     4    1
     5    17    16    1
     6     5     4    1
     7    12    10    1
     8     4    10    1
     9     4     3    1
    10    19    16    1
    11    16    18    1
    12    16    14    1
    13    10    13    1
    14    10    11    1
    15    23    20    1
    16     3    14    1
    17     3     2   am
    18    14    20    1
    19    14    15    1
    20     1     2    2
    21    20    22    1
    22    20    21    1
    23     2    24    1
    24    33    32    1
    25    24    32    1
    26    24    28    1
    27    24    25    1
    28    32    30    1
    29    32    34    1
    30    29    28    1
    31    31    30    1
    32    28    30    1
    33    28    26    1
    34    30    36    1
    35    46    45    1
    36    25    34    1
    37    25    37    1
    38    25    26    1
    39    45    37   ar
    40    45    43   ar
    41    34    35    1
    42    34    36    1
    43    44    43    1
    44    37    38   ar
    45    43    42   ar
    46    26    36    1
    47    26    27    1
    48    36    49    1
    49    38    39    1
    50    38    40   ar
    51    42    40   ar
    52    42    47    1
    53    40    41    1
    54    47    48    3
    55    50    49    2
    56    49    51   am
    57    53    52    1
    58    59    58    1
    59    51    52    1
    60    51    62    1
    61    71    68    1
    62    52    58    1
    63    52    54    1
    64    58    60    1
    65    58    61    1
    66    69    68    1
    67    68    62    1
    68    68    70    1
    69    65    64    1
    70    57    54    1
    71    62    64    1
    72    62    63    1
    73    54    56    1
    74    54    55    1
    75    64    67    1
    76    64    66    1
