@<TRIPOS>MOLECULE
8-bromo-4,5,5-trimethyl-5,6-dihydrobenzo[c][2,7]naphthyridine
 34 36 0 0 0
SMALL
GASTEIGER

@<TRIPOS>ATOM
      1 BR          6.4147   -0.7316   10.7421 Br      1  LIG1       -0.0501
      2 N           4.6629    0.9063    2.1274 N.ar    1  LIG1       -0.2596
      3 N           6.5426    2.1616    6.3800 N.pl3   1  LIG1       -0.3912
      4 H           7.2345    2.4949    6.8297 H       1  LIG1        0.3734
      5 H           5.8547    2.7061    6.5281 H       1  LIG1        0.3734
      6 C           6.3571    2.5653    1.8968 C.3     1  LIG1       -0.0218
      7 H           6.3491    2.2359    0.9945 H       1  LIG1        0.0293
      8 H           7.2639    2.6406    2.2009 H       1  LIG1        0.0293
      9 H           5.9371    3.4286    1.9255 H       1  LIG1        0.0293
     10 C           5.6035    1.6092    2.7892 C.ar    1  LIG1        0.0483
     11 C           5.8775    1.4078    4.1576 C.ar    1  LIG1        0.0457
     12 C           5.2554    0.3138    4.7995 C.ar    1  LIG1        0.0008
     13 C           5.6006   -0.0196    6.1903 C.ar    1  LIG1        0.0478
     14 C           5.2820   -1.2504    6.7960 C.ar    1  LIG1       -0.0469
     15 H           4.8884   -1.9211    6.2850 H       1  LIG1        0.0626
     16 C           5.5384   -1.4850    8.1345 C.ar    1  LIG1       -0.0468
     17 H           5.3319   -2.3033    8.5246 H       1  LIG1        0.0629
     18 C           6.1111   -0.4693    8.8785 C.ar    1  LIG1        0.0239
     19 C           4.3115   -0.4223    4.0716 C.ar    1  LIG1       -0.0352
     20 H           3.8805   -1.1468    4.4642 H       1  LIG1        0.0639
     21 C           4.0266   -0.0694    2.7842 C.ar    1  LIG1        0.0285
     22 H           3.3546   -0.5328    2.3393 H       1  LIG1        0.0830
     23 C           6.8741    2.2681    4.9440 C.3     1  LIG1        0.1322
     24 C           8.3073    1.7539    4.6948 C.3     1  LIG1       -0.0008
     25 H           8.9375    2.3493    5.1085 H       1  LIG1        0.0298
     26 H           8.4752    1.7167    3.7501 H       1  LIG1        0.0298
     27 H           8.4028    0.8760    5.0711 H       1  LIG1        0.0298
     28 C           6.7681    3.7708    4.6611 C.3     1  LIG1       -0.0008
     29 H           5.8437    4.0308    4.6549 H       1  LIG1        0.0298
     30 H           7.1611    3.9634    3.8062 H       1  LIG1        0.0298
     31 H           7.2332    4.2586    5.3441 H       1  LIG1        0.0298
     32 C           6.2331    0.9649    6.9593 C.ar    1  LIG1        0.1525
     33 C           6.4686    0.7489    8.3277 C.ar    1  LIG1        0.0181
     34 H           6.8580    1.4117    8.8524 H       1  LIG1        0.0692
@<TRIPOS>BOND
     1     7     6    1
     2     6     9    1
     3     6     8    1
     4     6    10    1
     5     2    21   ar
     6     2    10   ar
     7    22    21    1
     8    21    19   ar
     9    10    11   ar
    10    26    24    1
    11    30    28    1
    12    19    20    1
    13    19    12   ar
    14    11    12   ar
    15    11    23    1
    16    29    28    1
    17    28    23    1
    18    28    31    1
    19    24    23    1
    20    24    27    1
    21    24    25    1
    22    12    13    1
    23    23     3    1
    24    13    14   ar
    25    13    32   ar
    26    15    14    1
    27     3     5    1
    28     3     4    1
    29     3    32    1
    30    14    16   ar
    31    32    33   ar
    32    16    17    1
    33    16    18   ar
    34    33    34    1
    35    33    18   ar
    36    18     1    1
