@<TRIPOS>MOLECULE
C25 H23 F4 N5 O5
 248 264 0 0 0
SMALL
GASTEIGER

@<TRIPOS>ATOM
      1 O           5.2716    0.8361    9.2884 O.2     1  LIG1       -0.2525
      2 O           7.8550   -2.5831   15.5117 O.2     2  LIG2       -0.2525
      3 F          -2.2399   -4.7342   21.2152 F       1  LIG1       -0.2055
      4 O           2.6400    4.0835    5.1801 O.2     3  LIG3       -0.2738
      5 O           3.9530   -0.9624   19.2316 O.2     1  LIG1       -0.2738
      6 O          11.2856    0.6417    1.3478 O.3     2  LIG2       -0.4895
      7 O          11.1546   -1.3120    8.8245 O.2     2  LIG2       -0.2724
      8 F          13.0379   -2.4331    1.8899 F       2  LIG2       -0.1685
      9 F          -8.1183    2.5482   21.3461 F       4  LIG4       -0.2055
     10 O          10.2783   -1.6027    5.4660 O.2     2  LIG2       -0.2738
     11 N          -2.4174    1.4389   20.5410 N.am    4  LIG4       -0.2812
     12 O           4.4882   -2.4073   16.1352 O.2     1  LIG1       -0.2724
     13 O          -1.3685    3.0265   19.2951 O.2     4  LIG4       -0.2738
     14 O          -3.1925    1.4401   23.4574 O.3     4  LIG4       -0.4895
     15 C           4.6229   -0.1436   13.3404 C.ar    1  LIG1       -0.0398
     16 N           2.3354    0.3274   16.0879 N.am    1  LIG1       -0.2811
     17 H           1.9924    1.0977   15.8362 H       1  LIG1        0.1516
     18 O           4.1025    3.9200    8.3494 O.2     3  LIG3       -0.2724
     19 N           8.9751   -0.6399   14.9828 N.am    2  LIG2       -0.2695
     20 H           9.4267    0.0297   15.3323 H       2  LIG2        0.1564
     21 N          -3.1809    2.9610   17.2803 N.am    4  LIG4       -0.2150
     22 O           1.0317    6.7881    6.6225 O.2     3  LIG3       -0.2522
     23 O          -1.5517    2.1126   15.8870 O.2     4  LIG4       -0.2724
     24 F           0.2770    0.6234   22.8224 F       4  LIG4       -0.1685
     25 C           2.3463   -0.9336   13.2256 C.ar    1  LIG1       -0.0541
     26 H           1.5362   -1.1880   13.6517 H       1  LIG1        0.0622
     27 F          -0.0725   -0.0672   20.8195 F       4  LIG4       -0.1685
     28 N           3.2268   -2.6576   20.5462 N.am    1  LIG1       -0.2812
     29 O           8.1232    1.3271    6.6889 O.2     2  LIG2       -0.2522
     30 F           5.9528   -2.8769   20.8207 F       1  LIG1       -0.1685
     31 N           9.8781    0.1002    7.5431 N.am    2  LIG2       -0.2150
     32 F           8.7802    5.0032    3.5040 F       2  LIG2       -0.2055
     33 F           4.2728   11.2142    3.6967 F       3  LIG3       -0.2055
     34 F          -1.3956   -0.6419   22.4002 F       4  LIG4       -0.1685
     35 N          -3.7280    4.8194   16.2262 N.am    4  LIG4       -0.2811
     36 H          -4.1337    5.5737   16.0238 H       4  LIG4        0.1516
     37 C           8.3849   -1.5299   15.8610 C.2     2  LIG2        0.3036
     38 O           0.9119   -0.1631   17.8471 O.2     1  LIG1       -0.2522
     39 C           8.5486    0.5510    7.5255 C.2     2  LIG2        0.3100
     40 F          13.7805   -0.4734    2.3399 F       2  LIG2       -0.1685
     41 N           7.9195   -0.0169    8.5649 N.am    2  LIG2       -0.2811
     42 H           7.0814    0.1482    8.7753 H       2  LIG2        0.1516
     43 O          -4.8319    4.2969   18.2014 O.2     4  LIG4       -0.2522
     44 N           8.4447   -1.1375   17.1503 N.am    2  LIG2       -0.3022
     45 H           8.8207   -0.3660   17.3463 H       2  LIG2        0.1499
     46 C          -4.0368    4.0868   17.3157 C.2     4  LIG4        0.3100
     47 N          -3.3074    3.4236    9.8262 N.am    4  LIG4       -0.2695
     48 H          -3.8944    2.8204    9.5691 H       4  LIG4        0.1564
     49 O           2.4983   -3.1472   23.4262 O.3     1  LIG1       -0.4895
     50 C           3.4204   -0.4729   13.9702 C.ar    1  LIG1       -0.0119
     51 N           2.5580   -1.6243   17.1015 N.am    1  LIG1       -0.2150
     52 N           0.9309    5.3564    8.4283 N.am    3  LIG3       -0.2811
     53 H           0.0970    5.4911    8.6739 H       3  LIG3        0.1516
     54 N           3.6835   -0.7392    9.8039 N.am    1  LIG1       -0.2695
     55 H           3.1800   -1.3661    9.4463 H       1  LIG1        0.1564
     56 C           8.8388   -0.6876   10.7991 C.ar    2  LIG2       -0.0119
     57 C           4.5422    8.8907    3.7383 C.ar    3  LIG3       -0.0183
     58 H           4.8019    8.9371    4.6510 H       3  LIG3        0.0650
     59 O           4.0531    6.4268    1.0605 O.3     3  LIG3       -0.4895
     60 N           3.9794    5.3502    3.8578 N.am    3  LIG3       -0.2812
     61 C           1.8335   -0.4166   17.0896 C.2     1  LIG1        0.3100
     62 O           1.9898    2.9224   15.3716 O.2     3  LIG3       -0.2525
     63 O          -1.6568    4.7834    9.0568 O.2     4  LIG4       -0.2525
     64 C           2.2709    5.9311   11.1869 C.ar    3  LIG3       -0.0541
     65 H           2.2262    6.7386   10.6892 H       3  LIG3        0.0622
     66 C           4.0957    7.6410    1.7463 C.ar    3  LIG3        0.1254
     67 C          11.9178    1.2763    4.0081 C.3     2  LIG2        0.0440
     68 H          12.7722    1.2833    3.5085 H       2  LIG2        0.0515
     69 H          12.0751    1.7171    4.8804 H       2  LIG2        0.0515
     70 C           2.5489   -3.9588   20.7094 C.3     1  LIG1        0.0440
     71 H           3.1668   -4.5843   21.1642 H       1  LIG1        0.0515
     72 H           2.3521   -4.3297   19.8130 H       1  LIG1        0.0515
     73 F           4.8672    2.7736    3.2628 F       3  LIG3       -0.1685
     74 C           2.5224    5.9636   12.5373 C.ar    3  LIG3       -0.0401
     75 H           2.6532    6.7994   12.9691 H       3  LIG3        0.0636
     76 C          -2.3674    2.9592   16.1836 C.2     4  LIG4        0.2515
     77 C           2.4745   -1.0170   11.8477 C.ar    1  LIG1       -0.0401
     78 H           1.7473   -1.3373   11.3273 H       1  LIG1        0.0636
     79 F           5.9753   -2.1065   22.8085 F       1  LIG1       -0.1685
     80 F          13.6465   -1.9432    3.8893 F       2  LIG2       -0.1685
     81 C           8.9025    0.5152   11.4897 C.ar    2  LIG2       -0.0541
     82 H           8.9138    1.3414   11.0204 H       2  LIG2        0.0622
     83 N           2.8577    5.5711    7.3586 N.am    3  LIG3       -0.2150
     84 C           2.4142    3.5463   12.6347 C.ar    3  LIG3       -0.0369
     85 H           2.4742    2.7350   13.1254 H       3  LIG3        0.0639
     86 C           3.6323   -1.5862   16.2434 C.2     1  LIG1        0.2515
     87 C           8.7672   -0.9320    9.3070 C.3     2  LIG2        0.1385
     88 C           8.9163   -0.7126   13.5680 C.ar    2  LIG2        0.0350
     89 C          -1.9514    4.0835   11.7847 C.ar    4  LIG4       -0.0369
     90 H          -1.1942    4.2713   11.2431 H       4  LIG4        0.0639
     91 C           8.8018   -3.0550   10.5296 C.3     2  LIG2       -0.0246
     92 H           8.1657   -3.7490   10.8353 H       2  LIG2        0.0314
     93 H           9.6990   -3.4603   10.4251 H       2  LIG2        0.0314
     94 C          -2.6377    4.1003    8.8461 C.2     4  LIG4        0.3036
     95 F           5.6908    4.0800    1.7552 F       3  LIG3       -0.1685
     96 F           4.0337    2.7971    1.2975 F       3  LIG3       -0.1685
     97 C           4.1957   10.0413    3.0498 C.ar    3  LIG3        0.1239
     98 C          -3.1405    3.6086   11.2167 C.ar    4  LIG4        0.0350
     99 C           8.8806   -1.9216   12.8678 C.ar    2  LIG2       -0.0369
    100 H           8.8845   -2.7502   13.3324 H       2  LIG2        0.0639
    101 C          -4.7065    1.3650   21.5899 C.ar    4  LIG4        0.0142
    102 C           4.5051    7.6578    3.0733 C.ar    3  LIG3        0.0142
    103 C           3.5059   -0.2731   15.4628 C.3     1  LIG1        0.1385
    104 N           2.7935    4.9115   14.6493 N.am    3  LIG3       -0.2695
    105 H           3.2179    5.6344   14.9177 H       3  LIG3        0.1564
    106 C          -3.2540    1.9435   18.2979 C.3     4  LIG4        0.1004
    107 H          -3.0611    1.0609   17.8933 H       4  LIG4        0.0566
    108 H          -4.1712    1.9163   18.6688 H       4  LIG4        0.0566
    109 C           3.0929    4.5698    8.2549 C.2     3  LIG3        0.2515
    110 N           4.0727   -0.1495    7.6289 N.am    1  LIG1       -0.3022
    111 H           3.4258   -0.7082    7.4186 H       1  LIG1        0.1499
    112 C          10.8277   -0.5161    5.3626 C.2     2  LIG2        0.2344
    113 C          10.1103   -0.7646    8.5805 C.2     2  LIG2        0.2515
    114 C           2.5886    4.7920   13.2796 C.ar    3  LIG3        0.0350
    115 C          10.8151    0.4812    6.5168 C.3     2  LIG2        0.1004
    116 H          11.7225    0.5390    6.9083 H       2  LIG2        0.0566
    117 H          10.5745    1.3775    6.1715 H       2  LIG2        0.0566
    118 C          10.6677    1.7500    1.9129 C.ar    2  LIG2        0.1254
    119 C           4.8216    0.5572   15.6108 C.3     1  LIG1       -0.0147
    120 H           4.6229    1.5266   15.6356 H       1  LIG1        0.0297
    121 H           5.3008    0.3084   16.4408 H       1  LIG1        0.0297
    122 C          -2.9964    3.9995   13.9563 C.ar    4  LIG4       -0.0119
    123 C           2.1553    3.5299   11.2861 C.ar    3  LIG3       -0.0398
    124 C           1.9643    2.3334   10.3712 C.3     3  LIG3       -0.0246
    125 H           1.3594    1.6645   10.7795 H       3  LIG3        0.0314
    126 H           2.8303    1.9021   10.1620 H       3  LIG3        0.0314
    127 C          -1.0747   -4.3137   21.7600 C.ar    1  LIG1        0.1239
    128 C           1.3391    2.9512    9.1195 C.3     3  LIG3       -0.0147
    129 H           0.3510    2.9080    9.1658 H       3  LIG3        0.0297
    130 H           1.6405    2.4727    8.3069 H       3  LIG3        0.0297
    131 C          -4.4472    1.7086   22.9129 C.ar    4  LIG4        0.1254
    132 C           3.4041    5.0206    5.0611 C.2     3  LIG3        0.2344
    133 C           1.2941   -3.5034   22.8356 C.ar    1  LIG1        0.1254
    134 C          -4.2435    3.3289   12.0411 C.ar    4  LIG4       -0.0401
    135 H          -5.0466    3.0014   11.6526 H       4  LIG4        0.0636
    136 C           7.9074   -1.9488   18.2175 C.3     2  LIG2        0.0015
    137 H           6.9406   -2.0521   18.0943 H       2  LIG2        0.0426
    138 H           8.0825   -1.5144   19.0783 H       2  LIG2        0.0426
    139 H           8.3344   -2.8308   18.2038 H       2  LIG2        0.0426
    140 C           1.8203    4.4222    9.0952 C.3     3  LIG3        0.1385
    141 C           3.2934   -1.9700   19.3737 C.2     1  LIG1        0.2344
    142 C          11.5882   -1.0650    3.1358 C.3     2  LIG2        0.1553
    143 H          11.1287   -1.8970    3.4475 H       2  LIG2        0.0624
    144 C          -0.6640    0.3726   21.9062 C.3     4  LIG4        0.4111
    145 C          -3.6298    0.6357   20.7989 C.3     4  LIG4        0.0440
    146 H          -3.3700   -0.1809   21.2947 H       4  LIG4        0.0515
    147 H          -4.0119    0.3503   19.9312 H       4  LIG4        0.0515
    148 N          11.5167   -0.1218    4.2459 N.am    2  LIG2       -0.2812
    149 C           8.9496    0.4921   12.8673 C.ar    2  LIG2       -0.0401
    150 H           9.0057    1.3105   13.3467 H       2  LIG2        0.0636
    151 C           3.7272    5.9099    6.2560 C.3     3  LIG3        0.1004
    152 H           4.6723    5.7815    6.5227 H       3  LIG3        0.0566
    153 H           3.6015    6.8603    6.0100 H       3  LIG3        0.0566
    154 C           0.0526   -4.2850   20.9435 C.ar    1  LIG1       -0.0183
    155 H          -0.0065   -4.5322   20.0281 H       1  LIG1        0.0650
    156 C           2.0825    4.7076   10.5542 C.ar    3  LIG3       -0.0119
    157 F           5.1166   -4.0253   22.4312 F       1  LIG1       -0.1685
    158 C           4.7653   -0.2159   11.9662 C.ar    1  LIG1       -0.0369
    159 H           5.5857    0.0117   11.5451 H       1  LIG1        0.0639
    160 C          -1.9087    4.2694   13.1507 C.ar    4  LIG4       -0.0398
    161 C           4.4107    0.0336    8.9328 C.2     1  LIG1        0.3036
    162 C           3.0763    5.5232    1.5447 C.3     3  LIG3        0.1165
    163 H           2.7763    4.9522    0.7941 H       3  LIG3        0.0718
    164 H           2.2931    6.0433    1.8552 H       3  LIG3        0.0718
    165 C           8.8383   -1.8891   11.4857 C.ar    2  LIG2       -0.0398
    166 C           3.9202   -2.0771   21.6925 C.3     1  LIG1        0.1553
    167 H           4.1676   -1.1480   21.4181 H       1  LIG1        0.0624
    168 C          -0.7378    4.7541   13.9704 C.3     4  LIG4       -0.0246
    169 H          -0.3108    5.5433   13.5527 H       4  LIG4        0.0314
    170 H          -0.0612    4.0407   14.0838 H       4  LIG4        0.0314
    171 C           4.7762    0.5775    6.5756 C.3     1  LIG1        0.0015
    172 H           4.5130    0.2216    5.7014 H       1  LIG1        0.0426
    173 H           5.7425    0.4710    6.6950 H       1  LIG1        0.0426
    174 H           4.5437    1.5288    6.6242 H       1  LIG1        0.0426
    175 C          -2.2617    2.2117   19.4240 C.2     4  LIG4        0.2344
    176 C          -2.6612    4.2489   15.4164 C.3     4  LIG4        0.1385
    177 C          -1.0464   -3.9419   23.0766 C.ar    1  LIG1       -0.0230
    178 H          -1.8362   -3.9638   23.6034 H       1  LIG1        0.0647
    179 C           5.2337   -2.7952   21.9385 C.3     1  LIG1        0.4111
    180 C          -5.9540    1.6626   21.0632 C.ar    4  LIG4       -0.0183
    181 H          -6.1480    1.4758   20.1526 H       4  LIG4        0.0650
    182 N           2.4890    4.4920   16.8803 N.am    3  LIG3       -0.3022
    183 H           2.7544    5.3194   17.0178 H       3  LIG3        0.1499
    184 C           1.2687   -3.8878   21.4949 C.ar    1  LIG1        0.0142
    185 C           9.4221    3.9315    2.9704 C.ar    2  LIG2        0.1239
    186 C          -5.4301    2.2413   23.7287 C.ar    4  LIG4       -0.0169
    187 H          -5.2464    2.4159   24.6442 H       4  LIG4        0.0655
    188 C           1.5107    5.9925    7.3988 C.2     3  LIG3        0.3100
    189 C          10.9000    2.0707    3.2397 C.ar    2  LIG2        0.0142
    190 C           3.7489    8.8036    1.0736 C.ar    3  LIG3       -0.0169
    191 H           3.4744    8.7679    0.1637 H       3  LIG3        0.0655
    192 C          13.0347   -1.4658    2.8291 C.3     2  LIG2        0.4111
    193 C          -1.3843    5.1176   15.3019 C.3     4  LIG4       -0.0147
    194 H          -1.6163    6.0795   15.3231 H       4  LIG4        0.0297
    195 H          -0.7660    4.9242   16.0508 H       4  LIG4        0.0297
    196 C           3.6585   -0.6370   11.2157 C.ar    1  LIG1        0.0350
    197 C           2.1489    3.6521   18.0184 C.3     3  LIG3        0.0015
    198 H           1.1806    3.5022   18.0360 H       3  LIG3        0.0426
    199 H           2.4253    4.0974   18.8468 H       3  LIG3        0.0426
    200 H           2.6113    2.7918   17.9402 H       3  LIG3        0.0426
    201 N          -3.1758    4.0081    7.6234 N.am    4  LIG4       -0.3022
    202 H          -3.9623    3.6250    7.5300 H       4  LIG4        0.1499
    203 C           5.6589    0.2074   14.3768 C.3     1  LIG1       -0.0246
    204 H           6.2059    0.9802   14.0866 H       1  LIG1        0.0314
    205 H           6.2566   -0.5611   14.5577 H       1  LIG1        0.0314
    206 C           8.3336   -2.4114    9.2306 C.3     2  LIG2       -0.0147
    207 H           7.3496   -2.4808    9.1442 H       2  LIG2        0.0297
    208 H           8.7524   -2.8569    8.4519 H       2  LIG2        0.0297
    209 C           3.5370    4.6214    2.6823 C.3     3  LIG3        0.1553
    210 H           2.7283    4.1078    2.9679 H       3  LIG3        0.0624
    211 C           4.5643    3.5741    2.2464 C.3     3  LIG3        0.4111
    212 C           3.0522   -1.9248   22.9273 C.3     1  LIG1        0.1165
    213 H           3.5938   -1.5081   23.6440 H       1  LIG1        0.0718
    214 H           2.3098   -1.3051   22.7159 H       1  LIG1        0.0718
    215 C           0.1544   -3.5339   23.6206 C.ar    1  LIG1       -0.0169
    216 H           0.1989   -3.2742   24.5334 H       1  LIG1        0.0655
    217 C           2.4079    4.0319   15.6334 C.2     3  LIG3        0.3036
    218 C          -6.6822    2.5175   23.2030 C.ar    4  LIG4       -0.0230
    219 H          -7.3631    2.8959   23.7474 H       4  LIG4        0.0647
    220 C          10.2462    3.1924    3.7753 C.ar    2  LIG2       -0.0183
    221 H          10.3744    3.4349    4.6848 H       2  LIG2        0.0650
    222 C          -1.4898    1.6357   21.6409 C.3     4  LIG4        0.1553
    223 H          -0.8379    2.3260   21.3266 H       4  LIG4        0.0624
    224 C           2.4815   -2.5306   18.2123 C.3     1  LIG1        0.1004
    225 H           2.8377   -3.4157   17.9491 H       1  LIG1        0.0566
    226 H           1.5372   -2.6452   18.4872 H       1  LIG1        0.0566
    227 C           3.8072   10.0102    1.7332 C.ar    3  LIG3       -0.0230
    228 H           3.5797   10.8145    1.2823 H       3  LIG3        0.0647
    229 C          -6.9200    2.2362   21.8839 C.ar    4  LIG4        0.1239
    230 C          10.8335   -0.6039    1.8894 C.3     2  LIG2        0.1165
    231 H          10.9185   -1.3016    1.1925 H       2  LIG2        0.0718
    232 H           9.8731   -0.5209    2.1144 H       2  LIG2        0.0718
    233 C           9.2481    3.6624    1.6414 C.ar    2  LIG2       -0.0230
    234 H           8.7130    4.2273    1.0973 H       2  LIG2        0.0647
    235 C           4.9977    6.4010    3.7172 C.3     3  LIG3        0.0440
    236 H           5.7495    6.0437    3.1804 H       3  LIG3        0.0515
    237 H           5.3509    6.6224    4.6154 H       3  LIG3        0.0515
    238 C           9.8737    2.5423    1.1083 C.ar    2  LIG2       -0.0169
    239 H           9.7545    2.3217    0.1915 H       2  LIG2        0.0655
    240 C          -2.5017    4.5200    6.4541 C.3     4  LIG4        0.0015
    241 H          -3.0863    4.4271    5.6731 H       4  LIG4        0.0426
    242 H          -1.6755    4.0139    6.3055 H       4  LIG4        0.0426
    243 H          -2.2851    5.4661    6.5895 H       4  LIG4        0.0426
    244 C          -4.1810    3.5224   13.4019 C.ar    4  LIG4       -0.0541
    245 H          -4.9314    3.3344   13.9527 H       4  LIG4        0.0622
    246 C          -2.1276    2.2124   22.9030 C.3     4  LIG4        0.1165
    247 H          -1.4233    2.3146   23.5911 H       4  LIG4        0.0718
    248 H          -2.4728    3.1164   22.6942 H       4  LIG4        0.0718
@<TRIPOS>BOND
     1   191   190    1
     2   239   238    1
     3   163   162    1
     4    59   162    1
     5    59    66    1
     6   190   227   ar
     7   190    66   ar
     8   234   233    1
     9   238   233   ar
    10   238   118   ar
    11   231   230    1
    12   228   227    1
    13    96   211    1
    14     6   230    1
    15     6   118    1
    16   162   164    1
    17   162   209    1
    18   233   185   ar
    19   227    97   ar
    20    66   102   ar
    21    95   211    1
    22   230   232    1
    23   230   142    1
    24     8   192    1
    25   118   189   ar
    26   211   209    1
    27   211    73    1
    28    40   192    1
    29   209   210    1
    30   209    60    1
    31   192   142    1
    32   192    80    1
    33   185    32    1
    34   185   220   ar
    35    97    33    1
    36    97    57   ar
    37   102   235    1
    38   102    57   ar
    39   142   143    1
    40   142   148    1
    41   236   235    1
    42   189   220   ar
    43   189    67    1
    44    68    67    1
    45   235    60    1
    46   235   237    1
    47    57    58    1
    48   220   221    1
    49    60   132   am
    50    67   148    1
    51    67    69    1
    52   148   112   am
    53   132     4    2
    54   132   151    1
    55   112    10    2
    56   112   115    1
    57   241   240    1
    58   172   171    1
    59   153   151    1
    60   117   115    1
    61   151   152    1
    62   151    83    1
    63   242   240    1
    64   240   243    1
    65   240   201    1
    66   115   116    1
    67   115    31    1
    68   171   174    1
    69   171   173    1
    70   171   110    1
    71    22   188    2
    72    29    39    2
    73    83   188   am
    74    83   109   am
    75   188    52   am
    76   111   110    1
    77    39    31   am
    78    39    41   am
    79   202   201    1
    80    31   113   am
    81   201    94   am
    82   110   161   am
    83   109    18    2
    84   109   140    1
    85   130   128    1
    86    52    53    1
    87    52   140    1
    88   208   206    1
    89    41    42    1
    90    41    87    1
    91   113     7    2
    92   113    87    1
    93    94    63    2
    94    94    47   am
    95   161     1    2
    96   161    54   am
    97   140   128    1
    98   140   156    1
    99   128   129    1
   100   128   124    1
   101   207   206    1
   102   206    87    1
   103   206    91    1
   104    87    56    1
   105    55    54    1
   106    48    47    1
   107    54   196    1
   108    47    98    1
   109   126   124    1
   110   124   125    1
   111   124   123    1
   112    93    91    1
   113    91    92    1
   114    91   165    1
   115   156    64   ar
   116   156   123   ar
   117    65    64    1
   118    56   165   ar
   119    56    81   ar
   120    82    81    1
   121    64    74   ar
   122   196    77   ar
   123   196   158   ar
   124    98    89   ar
   125    98   134   ar
   126    90    89    1
   127   123    84   ar
   128    78    77    1
   129   165    99   ar
   130    81   149   ar
   131   159   158    1
   132   135   134    1
   133    89   160   ar
   134    77    25   ar
   135   158    15   ar
   136   134   244   ar
   137    74    75    1
   138    74   114   ar
   139    84    85    1
   140    84   114   ar
   141   149   150    1
   142   149    88   ar
   143    99   100    1
   144    99    88   ar
   145   160   122   ar
   146   160   168    1
   147    25    26    1
   148    25    50   ar
   149   114   104    1
   150    15    50   ar
   151    15   203    1
   152   244   245    1
   153   244   122   ar
   154   169   168    1
   155    88    19    1
   156   122   176    1
   157    50   103    1
   158   168   170    1
   159   168   193    1
   160   204   203    1
   161   203   205    1
   162   203   119    1
   163   104   105    1
   164   104   217   am
   165    19    20    1
   166    19    37   am
   167   193   194    1
   168   193   176    1
   169   193   195    1
   170    62   217    2
   171   176    76    1
   172   176    35    1
   173   103   119    1
   174   103    16    1
   175   103    86    1
   176     2    37    2
   177   119   120    1
   178   119   121    1
   179   217   182   am
   180    17    16    1
   181    37    44   am
   182    23    76    2
   183    36    35    1
   184    16    61   am
   185    12    86    2
   186    76    21   am
   187    35    46   am
   188    86    51   am
   189   182   183    1
   190   182   197    1
   191    61    51   am
   192    61    38    2
   193    51   224    1
   194    44    45    1
   195    44   136    1
   196    21    46   am
   197    21   106    1
   198    46    43    2
   199   107   106    1
   200   200   197    1
   201   225   224    1
   202   197   198    1
   203   197   199    1
   204   137   136    1
   205   139   136    1
   206   224   226    1
   207   224   141    1
   208   136   138    1
   209   106   108    1
   210   106   175    1
   211     5   141    2
   212    13   175    2
   213   141    28   am
   214   175    11   am
   215    72    70    1
   216   147   145    1
   217   155   154    1
   218   181   180    1
   219    11   145    1
   220    11   222    1
   221    28    70    1
   222    28   166    1
   223    70    71    1
   224    70   184    1
   225   145   146    1
   226   145   101    1
   227    27   144    1
   228    30   179    1
   229   154   184   ar
   230   154   127   ar
   231   180   101   ar
   232   180   229   ar
   233     3   127    1
   234   223   222    1
   235     9   229    1
   236   167   166    1
   237   184   133   ar
   238   101   131   ar
   239   222   144    1
   240   222   246    1
   241   166   179    1
   242   166   212    1
   243   127   177   ar
   244   229   218   ar
   245   144    34    1
   246   144    24    1
   247   179   157    1
   248   179    79    1
   249   248   246    1
   250   214   212    1
   251   133    49    1
   252   133   215   ar
   253   246    14    1
   254   246   247    1
   255   131    14    1
   256   131   186   ar
   257   212    49    1
   258   212   213    1
   259   177   178    1
   260   177   215   ar
   261   218   186   ar
   262   218   219    1
   263   215   216    1
   264   186   187    1
