@<TRIPOS>MOLECULE
C31 H20
 51 57 0 0 0
SMALL
GASTEIGER

@<TRIPOS>ATOM
      1 C           4.2273    2.1381    1.8700 C.3     1  LIG1        0.0727
      2 C           2.9885    1.9801    2.7524 C.ar    1  LIG1       -0.0204
      3 C           2.7378    2.5472    3.9851 C.ar    1  LIG1       -0.0559
      4 H           3.3690    3.1351    4.3829 H       1  LIG1        0.0621
      5 C           1.5448    2.2432    4.6361 C.ar    1  LIG1       -0.0537
      6 H           1.3725    2.6232    5.4893 H       1  LIG1        0.0624
      7 C           0.5938    1.3927    4.0641 C.ar    1  LIG1       -0.0173
      8 C           0.8626    0.8136    2.8215 C.ar    1  LIG1       -0.0460
      9 H           0.2293    0.2319    2.4176 H       1  LIG1        0.0630
     10 C           2.0670    1.0938    2.1764 C.ar    1  LIG1       -0.0123
     11 C           2.6682    0.5516    0.9459 C.ar    1  LIG1       -0.0129
     12 C           2.1784   -0.3586    0.0146 C.ar    1  LIG1       -0.0537
     13 H           1.2953   -0.7005    0.0889 H       1  LIG1        0.0624
     14 C           3.0084   -0.7574   -1.0283 C.ar    1  LIG1       -0.0612
     15 H           2.6863   -1.3755   -1.6747 H       1  LIG1        0.0618
     16 C           4.3047   -0.2624   -1.1379 C.ar    1  LIG1       -0.0614
     17 H           4.8654   -0.5630   -1.8430 H       1  LIG1        0.0618
     18 C           4.7856    0.6696   -0.2230 C.ar    1  LIG1       -0.0565
     19 H           5.6663    1.0159   -0.3048 H       1  LIG1        0.0621
     20 C           3.9590    1.0830    0.8074 C.ar    1  LIG1       -0.0205
     21 C           4.3262    3.5436    1.2626 C.ar    1  LIG1       -0.0205
     22 C           3.4316    4.1848    0.4265 C.ar    1  LIG1       -0.0565
     23 H           2.6377    3.7491    0.1397 H       1  LIG1        0.0621
     24 C           3.7188    5.4813    0.0125 C.ar    1  LIG1       -0.0614
     25 H           3.1139    5.9351   -0.5619 H       1  LIG1        0.0618
     26 C           4.8841    6.1221    0.4319 C.ar    1  LIG1       -0.0612
     27 H           5.0593    7.0119    0.1492 H       1  LIG1        0.0618
     28 C           5.7899    5.4738    1.2579 C.ar    1  LIG1       -0.0537
     29 H           6.5857    5.9086    1.5398 H       1  LIG1        0.0624
     30 C           5.5083    4.1731    1.6668 C.ar    1  LIG1       -0.0129
     31 C           6.2565    3.2577    2.5337 C.ar    1  LIG1       -0.0129
     32 C           7.4496    3.4367    3.2247 C.ar    1  LIG1       -0.0537
     33 H           7.9464    4.2413    3.1336 H       1  LIG1        0.0624
     34 C           7.9005    2.4152    4.0498 C.ar    1  LIG1       -0.0612
     35 H           8.7116    2.5240    4.5321 H       1  LIG1        0.0618
     36 C           7.1775    1.2355    4.1771 C.ar    1  LIG1       -0.0614
     37 H           7.4966    0.5502    4.7527 H       1  LIG1        0.0618
     38 C           5.9917    1.0431    3.4730 C.ar    1  LIG1       -0.0565
     39 H           5.5045    0.2319    3.5558 H       1  LIG1        0.0621
     40 C           5.5377    2.0587    2.6500 C.ar    1  LIG1       -0.0205
     41 C          -0.6687    1.1218    4.8077 C.ar    1  LIG1       -0.0179
     42 C          -1.2473    2.1134    5.6034 C.ar    1  LIG1       -0.0540
     43 H          -0.8455    2.9730    5.6512 H       1  LIG1        0.0624
     44 C          -2.4032    1.8559    6.3255 C.ar    1  LIG1       -0.0612
     45 H          -2.7850    2.5397    6.8640 H       1  LIG1        0.0618
     46 C          -3.0026    0.6160    6.2694 C.ar    1  LIG1       -0.0617
     47 H          -3.7963    0.4460    6.7624 H       1  LIG1        0.0618
     48 C          -2.4420   -0.3753    5.4912 C.ar    1  LIG1       -0.0612
     49 H          -2.8527   -1.2310    5.4496 H       1  LIG1        0.0618
     50 C          -1.2802   -0.1296    4.7681 C.ar    1  LIG1       -0.0540
     51 H          -0.8990   -0.8223    4.2416 H       1  LIG1        0.0624
@<TRIPOS>BOND
     1    17    16    1
     2    15    14    1
     3    16    14   ar
     4    16    18   ar
     5    14    12   ar
     6    25    24    1
     7    19    18    1
     8    18    20   ar
     9    24    22   ar
    10    24    26   ar
    11    12    13    1
    12    12    11   ar
    13    23    22    1
    14    27    26    1
    15    22    21   ar
    16    26    28   ar
    17    20    11   ar
    18    20     1    1
    19    11    10    1
    20    28    29    1
    21    28    30   ar
    22    21    30   ar
    23    21     1    1
    24    30    31    1
    25     1    40    1
    26     1     2    1
    27    10     2   ar
    28    10     8   ar
    29     9     8    1
    30    31    40   ar
    31    31    32   ar
    32    40    38   ar
    33     2     3   ar
    34     8     7   ar
    35    33    32    1
    36    32    34   ar
    37    38    39    1
    38    38    36   ar
    39     3     4    1
    40     3     5   ar
    41    34    36   ar
    42    34    35    1
    43     7     5   ar
    44     7    41    1
    45    36    37    1
    46    51    50    1
    47     5     6    1
    48    50    41   ar
    49    50    48   ar
    50    41    42   ar
    51    49    48    1
    52    48    46   ar
    53    42    43    1
    54    42    44   ar
    55    46    44   ar
    56    46    47    1
    57    44    45    1
