@<TRIPOS>MOLECULE
C17 H16 N2 O4
 39 42 0 0 0
SMALL
GASTEIGER

@<TRIPOS>ATOM
      1 C           0.3991    8.1755    4.2768 C.3     1  LIG1       -0.0306
      2 H           0.4534    8.4553    3.3560 H       1  LIG1        0.0262
      3 H           0.5261    8.9644    4.8302 H       1  LIG1        0.0262
      4 H          -0.4758    7.7885    4.4764 H       1  LIG1        0.0262
      5 C           1.4995    7.1866    4.5238 C.3     1  LIG1        0.0898
      6 H           1.4049    6.3557    4.0118 H       1  LIG1        0.0694
      7 H           2.3844    7.5091    4.3674 H       1  LIG1        0.0694
      8 O           1.4055    6.7199    5.9067 O.3     1  LIG1       -0.4608
      9 C           2.2193    7.2583    6.8031 C.2     1  LIG1        0.3766
     10 O           3.1350    8.0064    6.5851 O.2     1  LIG1       -0.2441
     11 C           1.8196    6.7944    8.2158 C.3     1  LIG1        0.3282
     12 O           2.6105    7.4871    9.1823 O.3     1  LIG1       -0.4514
     13 C           0.3291    7.1049    8.4456 C.3     1  LIG1        0.2337
     14 H          -0.2295    6.6636    7.7737 H       1  LIG1        0.1017
     15 C           2.2294    8.7726    9.5163 C.ar    1  LIG1        0.1451
     16 C           3.0958    9.5040   10.3074 C.ar    1  LIG1       -0.0180
     17 H           3.9180    9.0846   10.5729 H       1  LIG1        0.0655
     18 C           2.7617   10.8012   10.6903 C.ar    1  LIG1       -0.0582
     19 H           3.4367   11.3028   11.2521 H       1  LIG1        0.0619
     20 C           1.5510   11.3483   10.2765 C.ar    1  LIG1       -0.0598
     21 H           1.3209   12.2339   10.5611 H       1  LIG1        0.0618
     22 C           0.6722   10.6056    9.4968 C.ar    1  LIG1       -0.0372
     23 H          -0.1959   10.9769    9.2395 H       1  LIG1        0.0637
     24 C           0.9946    9.3011    9.1179 C.ar    1  LIG1        0.0722
     25 N           0.1483    8.5026    8.3375 N.pl3   1  LIG1       -0.3017
     26 H          -0.6549    8.7662    8.1896 H       1  LIG1        0.1498
     27 O          -0.0488    6.6513    9.7620 O.3     1  LIG1       -0.4626
     28 C           0.4092    5.4070   10.1346 C.ar    1  LIG1        0.1442
     29 C          -0.1965    4.7940   11.2245 C.ar    1  LIG1       -0.0180
     30 H          -0.9683    5.2459   11.6211 H       1  LIG1        0.0655
     31 C           0.2905    3.5880   11.7075 C.ar    1  LIG1       -0.0582
     32 H          -0.1231    3.1929   12.5268 H       1  LIG1        0.0619
     33 C           1.3982    2.9992   11.1071 C.ar    1  LIG1       -0.0598
     34 H           1.7519    2.1987   11.4349 H       1  LIG1        0.0618
     35 C           2.0016    3.6027   10.0097 C.ar    1  LIG1       -0.0372
     36 H           2.8098    3.2274    9.6169 H       1  LIG1        0.0637
     37 C           1.5028    4.8007    9.5010 C.ar    1  LIG1        0.0728
     38 N           2.0396    5.3967    8.3511 N.pl3   1  LIG1       -0.2907
     39 H           2.8490    5.1107    8.0622 H       1  LIG1        0.1506
@<TRIPOS>BOND
     1     2     1    1
     2     6     5    1
     3     1     4    1
     4     1     5    1
     5     1     3    1
     6     7     5    1
     7     5     8    1
     8     8     9    1
     9    10     9    2
    10     9    11    1
    11    14    13    1
    12    39    38    1
    13    26    25    1
    14    11    38    1
    15    11    13    1
    16    11    12    1
    17    25    13    1
    18    25    24    1
    19    38    37    1
    20    13    27    1
    21    24    22   ar
    22    24    15   ar
    23    12    15    1
    24    23    22    1
    25    22    20   ar
    26    37    35   ar
    27    37    28   ar
    28    15    16   ar
    29    36    35    1
    30    27    28    1
    31    35    33   ar
    32    28    29   ar
    33    20    21    1
    34    20    18   ar
    35    16    17    1
    36    16    18   ar
    37    18    19    1
    38    33    34    1
    39    33    31   ar
    40    29    30    1
    41    29    31   ar
    42    31    32    1
