@<TRIPOS>MOLECULE
C13 H15 N3 O2, H2 O
 36 37 0 0 0
SMALL
GASTEIGER

@<TRIPOS>ATOM
      1 C           3.0847    3.0282    6.9993 C.ar    1  LIG1        0.0210
      2 C           3.5618    3.9854    6.1043 C.ar    1  LIG1       -0.0529
      3 H           3.0149    4.7312    5.8854 H       1  LIG1        0.0622
      4 C           4.8234    3.8715    5.5236 C.ar    1  LIG1       -0.0612
      5 H           5.1410    4.5527    4.9425 H       1  LIG1        0.0618
      6 C           5.6141    2.7674    5.7924 C.ar    1  LIG1       -0.0583
      7 H           6.4550    2.6671    5.3631 H       1  LIG1        0.0619
      8 C           5.1734    1.8054    6.6939 C.ar    1  LIG1       -0.0196
      9 H           5.7192    1.0520    6.8877 H       1  LIG1        0.0654
     10 C           3.9340    1.9445    7.3119 C.ar    1  LIG1        0.1259
     11 C           2.9801   -0.2082    7.9515 C.3     1  LIG1        0.1054
     12 H           3.5385   -0.9713    8.2433 H       1  LIG1        0.0712
     13 H           2.8680   -0.2583    6.9683 H       1  LIG1        0.0712
     14 C           1.6086   -0.2564    8.6462 C.3     1  LIG1        0.0523
     15 H           1.0188   -0.9045    8.1857 H       1  LIG1        0.0499
     16 H           1.7154   -0.5443    9.5875 H       1  LIG1        0.0499
     17 C           1.4547    1.9853    9.5944 C.2     1  LIG1        0.3070
     18 C           1.6502    3.1198    7.5617 C.3     1  LIG1        0.1035
     19 C           1.0223    1.7403    7.3570 C.3     1  LIG1        0.1667
     20 C           2.0959    4.3537    9.7670 C.3     1  LIG1        0.0056
     21 H           2.8785    4.7418    9.3225 H       1  LIG1        0.0429
     22 H           2.3362    4.0883   10.6801 H       1  LIG1        0.0429
     23 H           1.3760    5.0180    9.7987 H       1  LIG1        0.0429
     24 C           0.8121    4.2342    6.9561 C.3     1  LIG1       -0.0357
     25 H          -0.0879    4.2137    7.3428 H       1  LIG1        0.0255
     26 H           0.7531    4.1086    5.9852 H       1  LIG1        0.0255
     27 H           1.2303    5.0995    7.1488 H       1  LIG1        0.0255
     28 N           1.0155    1.0868    8.5959 N.am    1  LIG1       -0.2573
     29 N           1.6480    3.1923    9.0283 N.am    1  LIG1       -0.2753
     30 N           0.6500    1.2015    6.2769 N.3     1  LIG1       -0.2264
     31 H           0.7092    1.6868    5.6281 H       1  LIG1        0.1431
     32 O           3.6098    1.0447    8.3207 O.3     1  LIG1       -0.4901
     33 O           1.5902    1.6889   10.7726 O.2     1  LIG1       -0.2523
     34 O           0.5808    1.2424   13.3900 O.3     2  HOH2       -0.4105
     35 H           0.9630    1.5075   12.6809 H       0  HOH0        0.2052
     36 H           0.1068    0.4400   13.1859 H       0  HOH0        0.2052
@<TRIPOS>BOND
     1     5     4    1
     2     7     6    1
     3     4     6   ar
     4     4     2   ar
     5    31    30    1
     6     6     8   ar
     7     3     2    1
     8    26    24    1
     9     2     1   ar
    10    30    19    1
    11     8     9    1
    12     8    10   ar
    13    24    27    1
    14    24    25    1
    15    24    18    1
    16    13    11    1
    17     1    10   ar
    18     1    18    1
    19    10    32    1
    20    19    18    1
    21    19    28    1
    22    18    29    1
    23    11    12    1
    24    11    32    1
    25    11    14    1
    26    15    14    1
    27    28    14    1
    28    28    17   am
    29    14    16    1
    30    29    17   am
    31    29    20    1
    32    21    20    1
    33    17    33    2
    34    20    23    1
    35    20    22    1
    36    35    34    1
    37    36    34    1
