@<TRIPOS>MOLECULE
C8 H8 N2 O2
 20 20 0 0 0
SMALL
GASTEIGER

@<TRIPOS>ATOM
      1 N           4.5159    3.8962    5.0451 N.pl3   1  LIG1       -0.2497
      2 N           3.0074    4.4535    3.4583 N.2     1  LIG1       -0.2884
      3 C           4.1412    3.9287    3.7963 C.2     1  LIG1        0.2662
      4 C           5.0341    3.3560    2.7822 C.ar    1  LIG1        0.0608
      5 C           4.4958    2.8488    1.6091 C.ar    1  LIG1       -0.0463
      6 C           5.3196    2.3112    0.6660 C.ar    1  LIG1       -0.0468
      7 C           6.6779    2.2653    0.8600 C.ar    1  LIG1        0.0632
      8 C           7.2077    2.7667    2.0330 C.ar    1  LIG1       -0.0468
      9 C           6.3947    3.3109    2.9816 C.ar    1  LIG1       -0.0463
     10 C           7.5845    1.6878   -0.1785 C.2     1  LIG1        0.3865
     11 O           7.1250    1.6044   -1.3353 O.co2   1  LIG1       -0.2406
     12 O           8.7254    1.3510    0.1738 O.co2   1  LIG1       -0.2406
     13 H           3.5618    2.8645    1.4739 H       1  LIG1        0.0626
     14 H           4.9406    1.9844   -0.1217 H       1  LIG1        0.0626
     15 H           8.1442    2.7179    2.1885 H       1  LIG1        0.0626
     16 H           6.7603    3.6655    3.7733 H       1  LIG1        0.0626
     17 H           2.4456    4.6935    4.0701 H       1  LIG1        0.3009
     18 H           4.0208    4.2599    5.6455 H       1  LIG1        0.2883
     19 H           2.8456    4.6529    2.6368 H       1  LIG1        0.3009
     20 H           5.1827    3.4007    5.2871 H       1  LIG1        0.2883
@<TRIPOS>BOND
     1    11    10   ar
     2    10    12   ar
     3    10     7    1
     4    14     6    1
     5     6     7   ar
     6     6     5   ar
     7     7     8   ar
     8    13     5    1
     9     5     4   ar
    10     8    15    1
    11     8     9   ar
    12    19     2    1
    13     4     9   ar
    14     4     3    1
    15     9    16    1
    16     2     3    2
    17     2    17    1
    18     3     1    1
    19     1    20    1
    20     1    18    1
