@<TRIPOS>MOLECULE
1560069.cif
 98 101 0 0 0
SMALL
GASTEIGER

@<TRIPOS>ATOM
      1 C           0.4945    2.1091    7.6700 C.ar    1  LIG1       -0.0167
      2 C           0.2118    3.4617    8.0543 C.ar    1  LIG1       -0.0534
      3 H           0.0786    4.1055    7.3968 H       1  LIG1        0.0624
      4 C           0.1351    3.8159    9.3581 C.ar    1  LIG1       -0.0534
      5 H          -0.0457    4.7017    9.5751 H       1  LIG1        0.0624
      6 C           0.3232    2.8726   10.4075 C.ar    1  LIG1       -0.0167
      7 C           0.2414    3.2170   11.7542 C.ar    1  LIG1       -0.0540
      8 H           0.0779    4.1000   11.9946 H       1  LIG1        0.0624
      9 C           0.4013    2.2568   12.7387 C.ar    1  LIG1       -0.0606
     10 H           0.3438    2.5051   13.6331 H       1  LIG1        0.0618
     11 C           0.6448    0.9388   12.4153 C.ar    1  LIG1       -0.0540
     12 H           0.7443    0.3090   13.0922 H       1  LIG1        0.0624
     13 C           0.7430    0.5437   11.0893 C.ar    1  LIG1       -0.0167
     14 C           1.0151   -0.8089   10.6933 C.ar    1  LIG1       -0.0534
     15 H           1.1139   -1.4599   11.3499 H       1  LIG1        0.0624
     16 C           1.1305   -1.1578    9.4159 C.ar    1  LIG1       -0.0534
     17 H           1.3285   -2.0416    9.2049 H       1  LIG1        0.0624
     18 C           0.9565   -0.2065    8.3510 C.ar    1  LIG1       -0.0167
     19 C           1.0650   -0.5526    7.0125 C.ar    1  LIG1       -0.0540
     20 H           1.2567   -1.4317    6.7787 H       1  LIG1        0.0624
     21 C           0.8907    0.3969    6.0200 C.ar    1  LIG1       -0.0606
     22 H           0.9662    0.1478    5.1273 H       1  LIG1        0.0618
     23 C           0.6077    1.6988    6.3382 C.ar    1  LIG1       -0.0540
     24 H           0.4894    2.3206    5.6566 H       1  LIG1        0.0624
     25 C           0.6788    1.1444    8.6915 C.ar    1  LIG1       -0.0025
     26 C           0.5834    1.5199   10.0621 C.ar    1  LIG1       -0.0025
     27 CL         -0.5476    5.8073    4.9581 Cl      2  LIG2       -0.0797
     28 CL          4.4401    3.8655    4.3357 Cl      2  LIG2       -0.0797
     29 O          -1.2517    3.8315    2.9333 O.3     2  LIG2       -0.5052
     30 H          -1.4305    3.1916    2.4527 H       2  LIG2        0.2922
     31 O           3.2319    2.2545    2.2343 O.3     2  LIG2       -0.5052
     32 H           2.8496    1.7845    1.6817 H       2  LIG2        0.2922
     33 C           0.0670    3.8292    3.2115 C.ar    2  LIG2        0.1386
     34 C           0.5548    4.7245    4.1706 C.ar    2  LIG2        0.0839
     35 C           1.8931    4.7352    4.5111 C.ar    2  LIG2       -0.0179
     36 H           2.2007    5.3177    5.1673 H       2  LIG2        0.0649
     37 C           2.7736    3.8826    3.8807 C.ar    2  LIG2        0.0839
     38 C           2.3292    3.0168    2.8760 C.ar    2  LIG2        0.1386
     39 C           0.9755    2.9972    2.5767 C.ar    2  LIG2        0.0242
     40 H           0.6671    2.4058    1.9286 H       2  LIG2        0.0692
     41 CL          7.3355    2.4192    4.4789 Cl      3  LIG3       -0.0797
     42 CL         12.6140    3.4193    4.9305 Cl      3  LIG3       -0.0797
     43 O           8.1755    0.3871    2.6043 O.3     3  LIG3       -0.5052
     44 H           8.4411   -0.1409    2.0355 H       3  LIG3        0.2922
     45 O          12.8811    1.2756    2.9553 O.3     3  LIG3       -0.5052
     46 H          12.9121    0.6688    2.4047 H       3  LIG3        0.2922
     47 C          11.5916    1.5110    3.2960 C.ar    3  LIG3        0.1386
     48 C          11.3124    2.5095    4.2294 C.ar    3  LIG3        0.0839
     49 C          10.0155    2.7809    4.6057 C.ar    3  LIG3       -0.0179
     50 H           9.8412    3.4458    5.2324 H       3  LIG3        0.0649
     51 C           8.9770    2.0655    4.0503 C.ar    3  LIG3        0.0839
     52 C           9.2251    1.0563    3.1206 C.ar    3  LIG3        0.1386
     53 C          10.5282    0.8027    2.7561 C.ar    3  LIG3        0.0242
     54 H          10.7006    0.1378    2.1292 H       3  LIG3        0.0692
     55 N          -2.9187    1.6419    9.1593 N.ar    4  LIG4       -0.2535
     56 N          -2.6039   -0.5108   10.8369 N.ar    4  LIG4       -0.2535
     57 C          -2.6580    0.2839    7.1632 C.3     4  LIG4       -0.0206
     58 H          -2.8594    1.1305    6.7586 H       4  LIG4        0.0293
     59 H          -3.3046   -0.3677    6.8812 H       4  LIG4        0.0293
     60 H          -1.7809    0.0008    6.8939 H       4  LIG4        0.0293
     61 C          -2.7029    0.4183    8.6512 C.ar    4  LIG4        0.0595
     62 C          -2.5324   -0.6710    9.5103 C.ar    4  LIG4        0.0595
     63 C          -2.2786   -2.0566    8.9908 C.3     4  LIG4       -0.0206
     64 H          -2.1800   -2.6617    9.7293 H       4  LIG4        0.0293
     65 H          -1.4756   -2.0590    8.4651 H       4  LIG4        0.0293
     66 H          -3.0188   -2.3342    8.4460 H       4  LIG4        0.0293
     67 C          -2.9676    0.8365   12.8282 C.3     4  LIG4       -0.0206
     68 H          -3.8588    1.1114   13.0552 H       4  LIG4        0.0293
     69 H          -2.3402    1.4897   13.1472 H       4  LIG4        0.0293
     70 H          -2.7806   -0.0122   13.2362 H       4  LIG4        0.0293
     71 C          -2.8462    0.7128   11.3365 C.ar    4  LIG4        0.0595
     72 C          -3.0005    1.8003   10.4859 C.ar    4  LIG4        0.0595
     73 C          -3.2688    3.1796   10.9979 C.3     4  LIG4       -0.0206
     74 H          -3.1758    3.8110   10.2806 H       4  LIG4        0.0293
     75 H          -2.6418    3.3907   11.6933 H       4  LIG4        0.0293
     76 H          -4.1618    3.2229   11.3481 H       4  LIG4        0.0293
     77 N           3.7962    3.6281    9.3939 N.ar    5  LIG5       -0.2535
     78 N           4.1436    1.6054   11.2329 N.ar    5  LIG5       -0.2535
     79 C           4.1211    2.1251    7.5133 C.3     5  LIG5       -0.0206
     80 H           3.8677    2.9220    7.0423 H       5  LIG5        0.0293
     81 H           3.5252    1.4102    7.2765 H       5  LIG5        0.0293
     82 H           5.0194    1.8843    7.2752 H       5  LIG5        0.0293
     83 C           4.0442    2.3707    8.9868 C.ar    5  LIG5        0.0595
     84 C           4.2325    1.3544    9.9230 C.ar    5  LIG5        0.0595
     85 C           4.5515   -0.0489    9.5004 C.3     5  LIG5       -0.0206
     86 H           5.3980   -0.0628    9.0478 H       5  LIG5        0.0293
     87 H           3.8668   -0.3687    8.9082 H       5  LIG5        0.0293
     88 H           4.5939   -0.6149   10.2751 H       5  LIG5        0.0293
     89 C           3.8149    3.1146   13.1192 C.3     5  LIG5       -0.0206
     90 H           3.9425    2.2897   13.5937 H       5  LIG5        0.0293
     91 H           2.9556    3.4809   13.3395 H       5  LIG5        0.0293
     92 H           4.5020    3.7368   13.3690 H       5  LIG5        0.0293
     93 C           3.8855    2.8584   11.6435 C.ar    5  LIG5        0.0595
     94 C           3.7227    3.8809   10.7067 C.ar    5  LIG5        0.0595
     95 C           3.4635    5.2949   11.1284 C.3     5  LIG5       -0.0206
     96 H           4.1968    5.6096   11.6620 H       5  LIG5        0.0293
     97 H           2.6540    5.3319   11.6437 H       5  LIG5        0.0293
     98 H           3.3727    5.8496   10.3502 H       5  LIG5        0.0293
@<TRIPOS>BOND
     1    32    31    1
     2    40    39    1
     3    44    43    1
     4    54    53    1
     5    31    38    1
     6    46    45    1
     7    30    29    1
     8    39    38   ar
     9    39    33   ar
    10    43    52    1
    11    53    52   ar
    12    53    47   ar
    13    38    37   ar
    14    29    33    1
    15    45    47    1
    16    52    51   ar
    17    33    34   ar
    18    47    48   ar
    19    37    28    1
    20    37    35   ar
    21    51    41    1
    22    51    49   ar
    23    34    35   ar
    24    34    27    1
    25    48    49   ar
    26    48    42    1
    27    35    36    1
    28    49    50    1
    29    22    21    1
    30    24    23    1
    31    21    23   ar
    32    21    19   ar
    33    23     1   ar
    34    58    57    1
    35    20    19    1
    36    59    57    1
    37    60    57    1
    38    19    18   ar
    39    80    79    1
    40    57    61    1
    41    82    79    1
    42    81    79    1
    43     3     2    1
    44    79    83    1
    45     1     2   ar
    46     1    25   ar
    47     2     4   ar
    48    18    25   ar
    49    18    16   ar
    50    66    63    1
    51    65    63    1
    52    61    55   ar
    53    61    62   ar
    54    25    26   ar
    55    87    85    1
    56    83    77   ar
    57    83    84   ar
    58    63    62    1
    59    63    64    1
    60    86    85    1
    61    55    72   ar
    62    17    16    1
    63     4     5    1
    64     4     6   ar
    65    77    94   ar
    66    16    14   ar
    67    85    84    1
    68    85    88    1
    69    62    56   ar
    70    84    78   ar
    71    26     6   ar
    72    26    13   ar
    73    74    73    1
    74    98    95    1
    75     6     7   ar
    76    72    73    1
    77    72    71   ar
    78    14    13   ar
    79    14    15    1
    80    94    95    1
    81    94    93   ar
    82    56    71   ar
    83    73    76    1
    84    73    75    1
    85    13    11   ar
    86    95    97    1
    87    95    96    1
    88    78    93   ar
    89    71    67    1
    90    93    89    1
    91     7     8    1
    92     7     9   ar
    93    11     9   ar
    94    11    12    1
    95     9    10    1
    96    67    68    1
    97    67    69    1
    98    67    70    1
    99    89    91    1
   100    89    92    1
   101    89    90    1
