@<TRIPOS>MOLECULE
?
 22 21 0 0 0
SMALL
GASTEIGER

@<TRIPOS>ATOM
      1 S          12.1313    1.2782    4.3138 S.3     1  LIG1        0.1426
      2 S           9.4379    2.2376    5.6986 S.3     1  LIG1        0.1426
      3 S           7.4136    2.4618    5.3119 S.3     1  LIG1        0.1426
      4 S           4.5481    1.8890    6.5500 S.3     1  LIG1        0.1426
      5 P          10.2124    1.1089    4.1069 P.3     1  LIG1        0.1584
      6 P           6.4074    1.3996    6.8086 P.3     1  LIG1        0.1584
      7 C           9.5128    1.7993    2.6203 C.3     1  LIG1        0.0727
      8 C           9.5922   -0.5479    4.2315 C.3     1  LIG1        0.0727
      9 C           6.7417   -0.3300    6.6144 C.3     1  LIG1        0.0727
     10 C           7.1561    1.8553    8.3638 C.3     1  LIG1        0.0727
     11 H           9.8215    2.6903    2.5194 H       1  LIG1        0.0685
     12 H           9.7752    1.2850    1.8639 H       1  LIG1        0.0685
     13 H           8.5649    1.7968    2.6873 H       1  LIG1        0.0685
     14 H           9.9450   -0.9644    5.0083 H       1  LIG1        0.0685
     15 H           8.6442   -0.5267    4.2849 H       1  LIG1        0.0685
     16 H           9.8568   -1.0385    3.4615 H       1  LIG1        0.0685
     17 H           6.3735   -0.6375    5.7961 H       1  LIG1        0.0685
     18 H           7.6786   -0.4800    6.6178 H       1  LIG1        0.0685
     19 H           6.3448   -0.8050    7.3377 H       1  LIG1        0.0685
     20 H           7.0084    2.7824    8.5097 H       1  LIG1        0.0685
     21 H           6.7549    1.3573    9.0660 H       1  LIG1        0.0685
     22 H           8.0887    1.6816    8.3460 H       1  LIG1        0.0685
@<TRIPOS>BOND
     1    12     7    1
     2    11     7    1
     3     7    13    1
     4     7     5    1
     5    16     8    1
     6     5     8    1
     7     5     1    1
     8     5     2    1
     9     8    15    1
    10     8    14    1
    11     3     2    1
    12     3     6    1
    13    17     9    1
    14     4     6    1
    15     9    18    1
    16     9     6    1
    17     9    19    1
    18     6    10    1
    19    22    10    1
    20    10    20    1
    21    10    21    1
