@<TRIPOS>MOLECULE
(+-)-cis-6-Acetylamino-5-hydroxy-1,3-dioxepane
 25 25 0 0 0
SMALL
GASTEIGER

@<TRIPOS>ATOM
      1 C           3.0675   -1.3337    3.7017 C.3     1  LIG1        0.1483
      2 C           3.8971    0.7188    2.8352 C.3     1  LIG1        0.0781
      3 C           3.2056    1.8924    3.4817 C.3     1  LIG1        0.0989
      4 C           2.8530    1.6341    4.9477 C.3     1  LIG1        0.0745
      5 C           2.1521    0.3053    5.1963 C.3     1  LIG1        0.0712
      6 C           2.2521    3.1849    6.7352 C.2     1  LIG1        0.2103
      7 C           1.3761    4.3229    7.1616 C.3     1  LIG1        0.0122
      8 O           3.0730   -0.7693    4.9953 O.3     1  LIG1       -0.3521
      9 O           2.9756   -0.3715    2.6881 O.3     1  LIG1       -0.3514
     10 O           2.0473    2.2782    2.7494 O.3     1  LIG1       -0.3876
     11 O           3.0763    2.6916    7.5009 O.2     1  LIG1       -0.2761
     12 N           2.0723    2.7287    5.4865 N.am    1  LIG1       -0.3079
     13 H           2.2614   -1.8931    3.6172 H       1  LIG1        0.0871
     14 H           3.9247   -1.8220    3.6241 H       1  LIG1        0.0871
     15 H           1.3563    0.1779    4.6936 H       1  LIG1        0.0580
     16 H           1.8899    0.2847    6.1241 H       1  LIG1        0.0580
     17 H           3.6364    1.5871    5.4293 H       1  LIG1        0.0547
     18 H           3.7995    2.6262    3.4878 H       1  LIG1        0.0636
     19 H           4.0876    1.0177    1.9687 H       1  LIG1        0.0587
     20 H           4.7151    0.4626    3.4061 H       1  LIG1        0.0587
     21 H           0.9014    4.7328    6.4988 H       1  LIG1        0.0322
     22 H           0.7939    4.0211    7.8612 H       1  LIG1        0.0322
     23 H           1.9088    5.0175    7.5479 H       1  LIG1        0.0322
     24 H           1.5847    1.6298    2.5750 H       1  LIG1        0.2100
     25 H           1.4951    3.0888    5.0069 H       1  LIG1        0.1491
@<TRIPOS>BOND
     1    19     2    1
     2    24    10    1
     3     9     2    1
     4     9     1    1
     5    10     3    1
     6     2    20    1
     7     2     3    1
     8     3    18    1
     9     3     4    1
    10    13     1    1
    11    14     1    1
    12     1     8    1
    13    15     5    1
    14     4     5    1
    15     4    17    1
    16     4    12    1
    17     8     5    1
    18    25    12    1
    19     5    16    1
    20    12     6   am
    21    21     7    1
    22     6     7    1
    23     6    11    2
    24     7    23    1
    25     7    22    1
