@<TRIPOS>MOLECULE
2001339.cif
 59 62 0 0 0
SMALL
GASTEIGER

@<TRIPOS>ATOM
      1 C          -2.3208    1.0248    9.5381 C.3     1  LIG1       -0.0471
      2 C          -2.5876    1.0148    8.0247 C.3     1  LIG1       -0.0525
      3 C          -1.2667    1.1552    7.2425 C.3     1  LIG1       -0.0528
      4 C          -0.2493    0.1145    7.6732 C.3     1  LIG1       -0.0497
      5 C           0.0033    0.1603    9.1920 C.3     1  LIG1       -0.0353
      6 C           1.1106   -0.7798    9.6522 C.3     1  LIG1       -0.0494
      7 C           1.4474   -0.5497   11.1133 C.3     1  LIG1       -0.0494
      8 C           0.2088   -0.6673   12.0176 C.3     1  LIG1       -0.0336
      9 C          -0.9363    0.2171   11.4970 C.3     1  LIG1       -0.0256
     10 C          -1.3094   -0.0408   10.0064 C.3     1  LIG1       -0.0258
     11 C          -2.1607    0.1574   12.4429 C.3     1  LIG1        0.0100
     12 C          -1.7371    0.4900   13.8745 C.2     1  LIG1        0.1400
     13 C          -0.6681   -0.4282   14.4380 C.3     1  LIG1        0.0323
     14 C           0.5209   -0.2360   13.4452 C.3     1  LIG1       -0.0256
     15 C           1.6821   -0.8734   14.1791 C.3     1  LIG1       -0.0488
     16 C           1.4217   -0.5497   15.6617 C.3     1  LIG1       -0.0488
     17 C          -0.0328   -0.0009   15.7851 C.3     1  LIG1       -0.0263
     18 C          -1.1607   -1.8882   14.4716 C.3     1  LIG1       -0.0523
     19 C          -1.9000   -1.4401    9.8199 C.3     1  LIG1       -0.0590
     20 C          -0.7187   -0.4780   17.0812 C.3     1  LIG1       -0.0430
     21 C          -2.1645   -0.0090   17.2314 C.3     1  LIG1       -0.0624
     22 C           0.1051   -0.0339   18.3035 C.3     1  LIG1       -0.0624
     23 O          -2.1683    1.4719   14.4447 O.2     1  LIG1       -0.2968
     24 H          -1.9501    2.0037    9.8038 H       1  LIG1        0.0271
     25 H          -3.2531    0.8415   10.0507 H       1  LIG1        0.0271
     26 H          -3.0374    0.0707    7.7564 H       1  LIG1        0.0265
     27 H          -3.2636    1.8195    7.7738 H       1  LIG1        0.0265
     28 H          -0.8651    2.1382    7.4424 H       1  LIG1        0.0265
     29 H          -1.4687    1.0566    6.1866 H       1  LIG1        0.0265
     30 H          -0.6216   -0.8634    7.4048 H       1  LIG1        0.0268
     31 H           0.6791    0.3018    7.1553 H       1  LIG1        0.0268
     32 H           0.3692    1.1542    9.4026 H       1  LIG1        0.0306
     33 H           0.7729   -1.7966    9.5220 H       1  LIG1        0.0268
     34 H           1.9925   -0.6135    9.0511 H       1  LIG1        0.0268
     35 H           2.1680   -1.2937   11.4192 H       1  LIG1        0.0268
     36 H           1.8774    0.4342   11.2220 H       1  LIG1        0.0268
     37 H          -0.0936   -1.7040   12.0189 H       1  LIG1        0.0307
     38 H          -0.5667    1.2319   11.4997 H       1  LIG1        0.0313
     39 H          -2.5891   -0.8336   12.4174 H       1  LIG1        0.0345
     40 H          -2.8971    0.8754   12.1129 H       1  LIG1        0.0345
     41 H           0.7807    0.7848   13.2050 H       1  LIG1        0.0313
     42 H           1.7011   -1.9420   14.0208 H       1  LIG1        0.0268
     43 H           2.6203   -0.4452   13.8571 H       1  LIG1        0.0268
     44 H           1.5350   -1.4421   16.2600 H       1  LIG1        0.0268
     45 H           2.1148    0.2042   16.0038 H       1  LIG1        0.0268
     46 H          -0.1364    1.0606   15.8991 H       1  LIG1        0.0313
     47 H          -0.3454   -2.4997   14.8285 H       1  LIG1        0.0239
     48 H          -1.4134   -2.1760   13.4626 H       1  LIG1        0.0239
     49 H          -2.0205   -2.0257   15.1116 H       1  LIG1        0.0239
     50 H          -1.1739   -2.1890   10.1003 H       1  LIG1        0.0235
     51 H          -2.1713   -1.5715    8.7828 H       1  LIG1        0.0235
     52 H          -2.7799   -1.5426   10.4384 H       1  LIG1        0.0235
     53 H          -0.7519   -1.5566   17.0235 H       1  LIG1        0.0298
     54 H          -2.7109   -0.3675   16.3714 H       1  LIG1        0.0232
     55 H          -2.2913    1.0596   17.3186 H       1  LIG1        0.0232
     56 H          -2.5397   -0.4890   18.1223 H       1  LIG1        0.0232
     57 H           1.1410   -0.3177   18.1894 H       1  LIG1        0.0232
     58 H          -0.2899   -0.4681   19.2091 H       1  LIG1        0.0232
     59 H           0.0302    1.0427   18.3585 H       1  LIG1        0.0232
@<TRIPOS>BOND
     1    29     3    1
     2    31     4    1
     3     3    28    1
     4     3     4    1
     5     3     2    1
     6    30     4    1
     7     4     5    1
     8    26     2    1
     9    27     2    1
    10     2     1    1
    11    51    19    1
    12    34     6    1
    13     5    32    1
    14     5     6    1
    15     5    10    1
    16    33     6    1
    17     1    24    1
    18     1    10    1
    19     1    25    1
    20     6     7    1
    21    19    10    1
    22    19    50    1
    23    19    52    1
    24    10     9    1
    25     7    36    1
    26     7    35    1
    27     7     8    1
    28     9    38    1
    29     9     8    1
    30     9    11    1
    31     8    37    1
    32     8    14    1
    33    40    11    1
    34    39    11    1
    35    11    12    1
    36    41    14    1
    37    14    15    1
    38    14    13    1
    39    48    18    1
    40    43    15    1
    41    12    13    1
    42    12    23    2
    43    42    15    1
    44    15    16    1
    45    13    18    1
    46    13    17    1
    47    18    47    1
    48    18    49    1
    49    16    17    1
    50    16    45    1
    51    16    44    1
    52    17    46    1
    53    17    20    1
    54    54    21    1
    55    53    20    1
    56    20    21    1
    57    20    22    1
    58    21    55    1
    59    21    56    1
    60    57    22    1
    61    22    59    1
    62    22    58    1
