@<TRIPOS>MOLECULE
2001736.cif
 12 12 0 0 0
SMALL
GASTEIGER

@<TRIPOS>ATOM
      1 N           0.6790    3.4228   -0.7536 N.ar    1  LIG1       -0.2434
      2 C           1.5085    2.4572   -0.3618 C.ar    1  LIG1        0.1166
      3 N           1.2971    1.1426   -0.4187 N.ar    1  LIG1       -0.2336
      4 C           0.1064    0.7415   -0.9002 C.ar    1  LIG1        0.0955
      5 C          -0.8568    1.6499   -1.3372 C.ar    1  LIG1       -0.0049
      6 C          -0.4872    2.9880   -1.2390 C.ar    1  LIG1        0.0343
      7 C          -2.1994    1.2977   -1.8971 C.3     1  LIG1       -0.0362
      8 H           2.3688    2.7454    0.0090 H       1  LIG1        0.1047
      9 H          -1.1291    3.6605   -1.5485 H       1  LIG1        0.0833
     10 H          -2.2120    0.5056   -2.5497 H       1  LIG1        0.0279
     11 H          -2.8350    1.0449   -1.1462 H       1  LIG1        0.0279
     12 H          -2.5970    2.1066   -2.4132 H       1  LIG1        0.0279
@<TRIPOS>BOND
     1    10     7    1
     2    12     7    1
     3     7     5    1
     4     7    11    1
     5     9     6    1
     6     5     6   ar
     7     5     4   ar
     8     6     1   ar
     9     4     3   ar
    10     1     2   ar
    11     3     2   ar
    12     2     8    1
