@<TRIPOS>MOLECULE
2001345.cif
 10 9 0 0 0
SMALL
GASTEIGER

@<TRIPOS>ATOM
      1 P           1.8333    2.6416    1.6970 P.3     1  LIG1        0.2258
      2 P           2.7933    0.4334    3.6932 P.3     1  LIG1        0.3714
      3 S           2.1381    3.8158    0.2757 S.3     1  LIG1       -0.0207
      4 S           4.0980   -0.7318    4.3523 S.3     1  LIG1        0.0166
      5 O           1.4434    3.3098    3.1142 O.3     1  LIG1       -0.1907
      6 O           1.4434   -0.2404    3.1142 O.2     1  LIG1       -0.2691
      7 O           2.2169    1.5396    4.7243 O.3     1  LIG1       -0.1500
      8 C           3.2374    1.5344    2.2506 C.3     1  LIG1        0.3868
      9 F           3.6115    0.7550    1.2081 F       1  LIG1       -0.1851
     10 F           4.2822    2.3152    2.6025 F       1  LIG1       -0.1851
@<TRIPOS>BOND
     1     3     1    1
     2     9     8    1
     3     1     8    1
     4     1     5    1
     5     8    10    1
     6     8     2    1
     7     6     2    2
     8     2     4    1
     9     2     7    1
