@<TRIPOS>MOLECULE
2H,3H-2-phenyl-3,4-dimethyl-6-carbonitrile 2R-[2\a,3\a,6\b,9\a]- hexahydropyrido [2,1-b][1,3,4] oxadiazin
 41 43 0 0 0
SMALL
GASTEIGER

@<TRIPOS>ATOM
      1 O           0.0027    5.8080    6.8020 O.3     1  LIG1       -0.3510
      2 C          -1.1829    6.5419    6.4731 C.3     1  LIG1        0.1022
      3 C          -1.7091    7.2306    7.7516 C.3     1  LIG1        0.0527
      4 N          -1.8779    6.2530    8.8664 N.3     1  LIG1       -0.2345
      5 N          -0.7987    5.3065    9.0048 N.3     1  LIG1       -0.1956
      6 C           0.2618    5.8704    9.8264 C.3     1  LIG1        0.1140
      7 C           1.3767    4.8397   10.0735 C.3     1  LIG1       -0.0227
      8 C           1.9378    4.4040    8.7339 C.3     1  LIG1       -0.0470
      9 C           0.8318    3.8250    7.8841 C.3     1  LIG1       -0.0116
     10 C          -0.3440    4.7645    7.7233 C.3     1  LIG1        0.1266
     11 C          -0.8943    7.5276    5.3672 C.ar    1  LIG1       -0.0173
     12 C          -1.9557    8.0811    4.6602 C.ar    1  LIG1       -0.0561
     13 C          -1.7278    9.0426    3.6942 C.ar    1  LIG1       -0.0614
     14 C          -0.4378    9.4678    3.4278 C.ar    1  LIG1       -0.0617
     15 C           0.6272    8.9004    4.1020 C.ar    1  LIG1       -0.0614
     16 C           0.4002    7.9378    5.0695 C.ar    1  LIG1       -0.0561
     17 C          -0.8541    8.4266    8.1639 C.3     1  LIG1       -0.0454
     18 C          -3.1617    5.5503    8.8188 C.3     1  LIG1        0.0029
     19 C          -0.3136    6.3269   11.0990 C.1     1  LIG1        0.0829
     20 N          -0.6817    6.6909   12.1126 N.1     1  LIG1       -0.1949
     21 H          -1.7957    5.8704    6.1471 H       1  LIG1        0.0663
     22 H          -2.5909    7.5345    7.5015 H       1  LIG1        0.0503
     23 H           0.6254    6.7025    9.4365 H       1  LIG1        0.0634
     24 H           0.9381    3.9753   10.5676 H       1  LIG1        0.0291
     25 H           1.9297    5.2580   10.6272 H       1  LIG1        0.0291
     26 H           2.5998    3.7095    8.8709 H       1  LIG1        0.0267
     27 H           2.3139    5.2118    8.1862 H       1  LIG1        0.0267
     28 H           1.0453    3.4437    6.8913 H       1  LIG1        0.0304
     29 H           0.4646    3.0739    8.3499 H       1  LIG1        0.0304
     30 H          -1.1614    4.3451    7.3229 H       1  LIG1        0.0782
     31 H          -2.7963    7.8003    4.8522 H       1  LIG1        0.0621
     32 H          -2.3675    9.4297    3.1554 H       1  LIG1        0.0618
     33 H          -0.3306   10.0999    2.6345 H       1  LIG1        0.0618
     34 H           1.5992    9.2795    3.8550 H       1  LIG1        0.0618
     35 H           1.1525    7.5807    5.4773 H       1  LIG1        0.0621
     36 H           0.1072    8.2279    8.1267 H       1  LIG1        0.0246
     37 H          -1.1346    9.2101    7.5313 H       1  LIG1        0.0246
     38 H          -1.0631    8.6323    9.0495 H       1  LIG1        0.0246
     39 H          -3.1626    4.8651    8.0076 H       1  LIG1        0.0405
     40 H          -3.9667    6.3211    8.7816 H       1  LIG1        0.0405
     41 H          -3.1448    4.9460    9.5555 H       1  LIG1        0.0405
@<TRIPOS>BOND
     1    33    14    1
     2    32    13    1
     3    14    13   ar
     4    14    15   ar
     5    13    12   ar
     6    34    15    1
     7    15    16   ar
     8    12    31    1
     9    12    11   ar
    10    16    11   ar
    11    16    35    1
    12    11     2    1
    13    21     2    1
    14     2     1    1
    15     2     3    1
    16     1    10    1
    17    28     9    1
    18    30    10    1
    19    22     3    1
    20    37    17    1
    21    10     9    1
    22    10     5    1
    23     3    17    1
    24     3     4    1
    25     9    29    1
    26     9     8    1
    27    39    18    1
    28    36    17    1
    29    17    38    1
    30    27     8    1
    31     8    26    1
    32     8     7    1
    33    40    18    1
    34    18     4    1
    35    18    41    1
    36     4     5    1
    37     5     6    1
    38    23     6    1
    39     6     7    1
    40     6    19    1
    41     7    24    1
    42     7    25    1
    43    19    20    3
