@<TRIPOS>MOLECULE
4,4'Sulfonyldiphenol--1,2-bis(4-pyridyl)ethane (1/1)
 53 55 0 0 0
SMALL
GASTEIGER

@<TRIPOS>ATOM
      1 S           3.4649    2.7786    8.4691 S.O2    1  LIG1        0.0251
      2 O           4.7884    2.6112    9.0043 O.2     1  LIG1       -0.1643
      3 O           3.1459    4.0221    7.8167 O.2     1  LIG1       -0.1643
      4 O           2.8078   -1.4649    4.4641 O.3     1  LIG1       -0.5068
      5 O          -0.3713    2.2649   12.8787 O.3     1  LIG1       -0.5068
      6 C           3.1629    1.4942    7.3056 C.ar    1  LIG1        0.0938
      7 C           3.3579    0.1615    7.6429 C.ar    1  LIG1       -0.0330
      8 C           3.2216   -0.8155    6.6870 C.ar    1  LIG1       -0.0184
      9 C           2.8859   -0.4710    5.3784 C.ar    1  LIG1        0.1170
     10 C           2.6420    0.8517    5.0626 C.ar    1  LIG1       -0.0184
     11 C           2.7911    1.8271    6.0198 C.ar    1  LIG1       -0.0330
     12 C           2.3343    2.5549    9.7874 C.ar    1  LIG1        0.0938
     13 C           2.7894    2.2167   11.0518 C.ar    1  LIG1       -0.0330
     14 C           1.8962    2.1174   12.0993 C.ar    1  LIG1       -0.0184
     15 C           0.5434    2.3426   11.8920 C.ar    1  LIG1        0.1170
     16 C           0.0870    2.6618   10.6161 C.ar    1  LIG1       -0.0184
     17 C           0.9796    2.7731    9.5778 C.ar    1  LIG1       -0.0330
     18 N           2.5017   -0.6853    1.8609 N.ar    2  LIG2       -0.2632
     19 C           2.4893    0.5230    1.3171 C.ar    2  LIG2        0.0278
     20 C           2.0563    0.7888    0.0421 C.ar    2  LIG2       -0.0404
     21 C           1.5875   -0.2468   -0.7498 C.ar    2  LIG2       -0.0442
     22 C           1.6415   -1.5090   -0.2063 C.ar    2  LIG2       -0.0404
     23 C           2.0943   -1.6872    1.0836 C.ar    2  LIG2        0.0278
     24 C           1.0197   -0.0202   -2.1329 C.3     2  LIG2       -0.0236
     25 N           0.3577    0.2402   -7.1738 N.ar    2  LIG2       -0.2632
     26 C           0.8983   -0.9051   -6.7907 C.ar    2  LIG2        0.0278
     27 C           1.4049   -1.1395   -5.5335 C.ar    2  LIG2       -0.0404
     28 C           1.3875   -0.1333   -4.6049 C.ar    2  LIG2       -0.0442
     29 C           0.8398    1.0670   -4.9986 C.ar    2  LIG2       -0.0404
     30 C           0.3221    1.2083   -6.2798 C.ar    2  LIG2        0.0278
     31 C           1.9587   -0.3528   -3.2191 C.3     2  LIG2       -0.0236
     32 H           2.7384   -1.1409    3.7141 H       1  LIG1        0.2921
     33 H           0.0014    2.0646   13.5810 H       1  LIG1        0.2921
     34 H           3.5810   -0.0697    8.5162 H       1  LIG1        0.0638
     35 H           3.3528   -1.7077    6.9129 H       1  LIG1        0.0654
     36 H           2.3762    1.0825    4.2014 H       1  LIG1        0.0654
     37 H           2.6398    2.7170    5.7991 H       1  LIG1        0.0638
     38 H           3.6950    2.0573   11.1940 H       1  LIG1        0.0638
     39 H           2.2030    1.8981   12.9489 H       1  LIG1        0.0654
     40 H          -0.8210    2.7997   10.4665 H       1  LIG1        0.0654
     41 H           0.6739    2.9968    8.7284 H       1  LIG1        0.0638
     42 H           2.7940    1.2353    1.8312 H       2  LIG2        0.0829
     43 H           2.0765    1.6579   -0.2874 H       2  LIG2        0.0635
     44 H           1.3727   -2.2433   -0.7096 H       2  LIG2        0.0635
     45 H           2.1162   -2.5506    1.4282 H       2  LIG2        0.0829
     46 H           0.2192   -0.5584   -2.2354 H       2  LIG2        0.0316
     47 H           0.7608    0.9101   -2.2163 H       2  LIG2        0.0316
     48 H           0.9371   -1.5968   -7.4114 H       2  LIG2        0.0829
     49 H           1.7563   -1.9730   -5.3163 H       2  LIG2        0.0635
     50 H           0.8170    1.7834   -4.4057 H       2  LIG2        0.0635
     51 H          -0.0657    2.0203   -6.5166 H       2  LIG2        0.0829
     52 H           2.2212   -1.2835   -3.1325 H       2  LIG2        0.0316
     53 H           2.7578    0.1883   -3.1202 H       2  LIG2        0.0316
@<TRIPOS>BOND
     1    48    26    1
     2    25    26   ar
     3    25    30   ar
     4    26    27   ar
     5    51    30    1
     6    30    29   ar
     7    27    49    1
     8    27    28   ar
     9    29    28   ar
    10    29    50    1
    11    28    31    1
    12    31    52    1
    13    31    53    1
    14    31    24    1
    15    46    24    1
    16    47    24    1
    17    24    21    1
    18    21    22   ar
    19    21    20   ar
    20    44    22    1
    21    43    20    1
    22    22    23   ar
    23    20    19   ar
    24    23    45    1
    25    23    18   ar
    26    19    42    1
    27    19    18   ar
    28    32     4    1
    29    36    10    1
    30     4     9    1
    31    10     9   ar
    32    10    11   ar
    33     9     8   ar
    34    37    11    1
    35    11     6   ar
    36     8    35    1
    37     8     7   ar
    38     6     7   ar
    39     6     1    1
    40     7    34    1
    41     3     1    2
    42     1     2    2
    43     1    12    1
    44    41    17    1
    45    17    12   ar
    46    17    16   ar
    47    12    13   ar
    48    40    16    1
    49    16    15   ar
    50    13    38    1
    51    13    14   ar
    52    15    14   ar
    53    15     5    1
    54    14    39    1
    55     5    33    1
