@<TRIPOS>MOLECULE
4'-methoxy-2,4,6-triisopropylbenzophenone
 55 56 0 0 0
SMALL
GASTEIGER

@<TRIPOS>ATOM
      1 O           8.4469    1.2905   13.4938 O.2     1  LIG1       -0.2866
      2 O          12.7174    5.0577   10.8236 O.3     1  LIG1       -0.4951
      3 C           9.2077    2.5895   16.4159 C.ar    1  LIG1       -0.0334
      4 C           8.7440    3.0589   17.6400 C.ar    1  LIG1       -0.0542
      5 C           7.5921    3.7768   17.7566 C.ar    1  LIG1       -0.0442
      6 C           6.8723    4.0421   16.6133 C.ar    1  LIG1       -0.0542
      7 C           7.2838    3.5967   15.3478 C.ar    1  LIG1       -0.0334
      8 C           8.4553    2.8596   15.2651 C.ar    1  LIG1        0.0291
      9 C           8.9293    2.3266   13.9394 C.2     1  LIG1        0.1937
     10 C           9.9722    3.0517   13.1684 C.ar    1  LIG1        0.0225
     11 C          10.6073    2.4454   12.0929 C.ar    1  LIG1       -0.0475
     12 C          11.5227    3.1189   11.3482 C.ar    1  LIG1       -0.0193
     13 C          11.8160    4.4539   11.6416 C.ar    1  LIG1        0.1201
     14 C          11.2107    5.0577   12.7134 C.ar    1  LIG1       -0.0193
     15 C          10.3028    4.3638   13.4787 C.ar    1  LIG1       -0.0475
     16 C          10.5021    1.8092   16.3576 C.3     1  LIG1       -0.0208
     17 C          10.5132    0.5858   17.2715 C.3     1  LIG1       -0.0586
     18 C          11.6884    2.7059   16.6660 C.3     1  LIG1       -0.0586
     19 C           7.1218    4.2582   19.1180 C.3     1  LIG1       -0.0215
     20 C           5.9243    3.6999   19.5693 C.3     1  LIG1       -0.0586
     21 C           7.2354    5.6640   19.3098 C.3     1  LIG1       -0.0586
     22 C           6.4579    3.8884   14.1030 C.3     1  LIG1       -0.0208
     23 C           5.3088    2.9088   13.9714 C.3     1  LIG1       -0.0586
     24 C           5.9448    5.3134   14.0560 C.3     1  LIG1       -0.0586
     25 C          12.8710    6.4755   10.9383 C.3     1  LIG1        0.0788
     26 H           9.2543    2.8632   18.4298 H       1  LIG1        0.0623
     27 H           6.0649    4.5571   16.6791 H       1  LIG1        0.0623
     28 H          10.3652    1.5390   11.8916 H       1  LIG1        0.0626
     29 H          11.9836    2.6759   10.6318 H       1  LIG1        0.0654
     30 H          11.4426    5.9689   12.9108 H       1  LIG1        0.0654
     31 H           9.8959    4.7828   14.2403 H       1  LIG1        0.0626
     32 H          10.6371    1.5018   15.4588 H       1  LIG1        0.0344
     33 H          11.3355    0.0936   17.2301 H       1  LIG1        0.0235
     34 H           9.7878    0.0060   17.0289 H       1  LIG1        0.0235
     35 H          10.3782    0.8932   18.1722 H       1  LIG1        0.0235
     36 H          12.5116    2.2137   16.6227 H       1  LIG1        0.0235
     37 H          11.5739    3.0613   17.5498 H       1  LIG1        0.0235
     38 H          11.7164    3.4310   16.0379 H       1  LIG1        0.0235
     39 H           7.7634    3.9484   19.7611 H       1  LIG1        0.0343
     40 H           5.6542    3.9893   20.4437 H       1  LIG1        0.0235
     41 H           5.9476    2.7395   19.5486 H       1  LIG1        0.0235
     42 H           5.2827    4.0097   18.9243 H       1  LIG1        0.0235
     43 H           6.9654    5.9533   20.1842 H       1  LIG1        0.0235
     44 H           6.6534    6.0565   18.6554 H       1  LIG1        0.0235
     45 H           8.1340    5.9557   19.1444 H       1  LIG1        0.0235
     46 H           7.0306    3.8044   13.3358 H       1  LIG1        0.0344
     47 H           4.8078    3.0877   13.1703 H       1  LIG1        0.0235
     48 H           4.7361    2.9928   14.7367 H       1  LIG1        0.0235
     49 H           5.6608    2.0168   13.9394 H       1  LIG1        0.0235
     50 H           5.4438    5.4911   13.2568 H       1  LIG1        0.0235
     51 H           6.6897    5.9161   14.1068 H       1  LIG1        0.0235
     52 H           5.3814    5.4467   14.8213 H       1  LIG1        0.0235
     53 H          13.5080    6.9341   10.3854 H       1  LIG1        0.0660
     54 H          13.1029    6.6616   11.8503 H       1  LIG1        0.0660
     55 H          12.0097    6.8561   10.7502 H       1  LIG1        0.0660
@<TRIPOS>BOND
     1    53    25    1
     2    29    12    1
     3    55    25    1
     4     2    25    1
     5     2    13    1
     6    25    54    1
     7    12    13   ar
     8    12    11   ar
     9    13    14   ar
    10    28    11    1
    11    11    10   ar
    12    14    30    1
    13    14    15   ar
    14    10    15   ar
    15    10     9    1
    16    47    23    1
    17    50    24    1
    18    46    22    1
    19    15    31    1
    20     1     9    2
    21    49    23    1
    22     9     8    1
    23    23    22    1
    24    23    48    1
    25    24    22    1
    26    24    51    1
    27    24    52    1
    28    22     7    1
    29     8     7   ar
    30     8     3   ar
    31     7     6   ar
    32    32    16    1
    33    38    18    1
    34    16     3    1
    35    16    18    1
    36    16    17    1
    37     3     4   ar
    38     6    27    1
    39     6     5   ar
    40    36    18    1
    41    18    37    1
    42    34    17    1
    43    33    17    1
    44    17    35    1
    45     4     5   ar
    46     4    26    1
    47     5    19    1
    48    44    21    1
    49    42    20    1
    50    19    21    1
    51    19    20    1
    52    19    39    1
    53    45    21    1
    54    21    43    1
    55    41    20    1
    56    20    40    1
