@<TRIPOS>MOLECULE
(1) endo 2-Norborneol 2,4-Dinitrobenzoate
 36 38 0 0 0
SMALL
GASTEIGER

@<TRIPOS>ATOM
      1 C           2.0470    2.9215   10.7868 C.3     1  LIG1       -0.0036
      2 C           0.8858    2.8219    9.8008 C.3     1  LIG1        0.1065
      3 C          -0.2726    3.5436   10.5188 C.3     1  LIG1       -0.0125
      4 C           0.3179    3.8523   11.9034 C.3     1  LIG1       -0.0373
      5 C           1.2807    5.0328   11.7335 C.3     1  LIG1       -0.0497
      6 C           2.4600    4.3986   10.9649 C.3     1  LIG1       -0.0466
      7 C           1.2789    2.6755   12.0999 C.3     1  LIG1       -0.0439
      8 C           0.3487    3.3476    7.5534 C.2     1  LIG1        0.3417
      9 C           0.7882    4.0466    6.2991 C.ar    1  LIG1        0.0892
     10 C           1.5187    5.2356    6.2750 C.ar    1  LIG1        0.1423
     11 C           1.9216    5.8452    5.1052 C.ar    1  LIG1       -0.0004
     12 C           1.5325    5.2501    3.9232 C.ar    1  LIG1        0.1284
     13 C           0.8161    4.0649    3.8818 C.ar    1  LIG1       -0.0306
     14 C           0.4529    3.4720    5.0721 C.ar    1  LIG1       -0.0434
     15 H           2.8069    2.3036   10.5743 H       1  LIG1        0.0336
     16 H           0.6612    1.8839    9.6184 H       1  LIG1        0.0737
     17 H          -0.5036    4.3484   10.0398 H       1  LIG1        0.0304
     18 H          -1.1059    2.9670   10.5820 H       1  LIG1        0.0304
     19 H          -0.3469    3.9287   12.6404 H       1  LIG1        0.0302
     20 H           1.5715    5.4116   12.6738 H       1  LIG1        0.0268
     21 H           0.8387    5.7789   11.1988 H       1  LIG1        0.0268
     22 H           2.6339    4.8183   10.1349 H       1  LIG1        0.0269
     23 H           3.3123    4.4009   11.5045 H       1  LIG1        0.0269
     24 H           0.8179    1.7918   12.1341 H       1  LIG1        0.0272
     25 H           1.8106    2.7606   12.8819 H       1  LIG1        0.0272
     26 H           2.3739    6.6940    5.1060 H       1  LIG1        0.0663
     27 H           0.5842    3.7212    3.0091 H       1  LIG1        0.0640
     28 H           0.0136    2.6335    5.1034 H       1  LIG1        0.0627
     29 N           1.8237    5.9667    7.5110 N.pl3   1  LIG1        0.0573
     30 N           1.8749    5.9352    2.6655 N.pl3   1  LIG1        0.0565
     31 O           1.2527    3.4475    8.5278 O.3     1  LIG1       -0.4575
     32 O          -0.6953    2.7506    7.6230 O.2     1  LIG1       -0.2449
     33 O           0.8926    6.2239    8.2629 O.2     1  LIG1       -0.1261
     34 O           2.9863    6.3025    7.6857 O.2     1  LIG1       -0.1261
     35 O           2.6931    6.8457    2.7149 O.2     1  LIG1       -0.1261
     36 O           1.3142    5.5638    1.6505 O.2     1  LIG1       -0.1261
@<TRIPOS>BOND
     1    36    30    2
     2    30    35    2
     3    30    12    1
     4    27    13    1
     5    13    12   ar
     6    13    14   ar
     7    12    11   ar
     8    14    28    1
     9    14     9   ar
    10    11    26    1
    11    11    10   ar
    12    10     9   ar
    13    10    29    1
    14     9     8    1
    15    29    34    2
    16    29    33    2
    17     8    32    2
    18     8    31    1
    19    31     2    1
    20    16     2    1
    21     2     3    1
    22     2     1    1
    23    17     3    1
    24    22     6    1
    25     3    18    1
    26     3     4    1
    27    15     1    1
    28     1     6    1
    29     1     7    1
    30     6    23    1
    31     6     5    1
    32    21     5    1
    33     5     4    1
    34     5    20    1
    35     4     7    1
    36     4    19    1
    37     7    24    1
    38     7    25    1
