@<TRIPOS>MOLECULE
C19 H18 O5
 42 44 0 0 0
SMALL
GASTEIGER

@<TRIPOS>ATOM
      1 O           0.2979    6.5423   17.8371 O.3     1  LIG1       -0.4830
      2 O          -3.4716    8.0449   17.3087 O.2     1  LIG1       -0.2918
      3 O           0.5491    5.2916   13.2531 O.3     1  LIG1       -0.4807
      4 O           1.7428    4.4218   11.0718 O.2     1  LIG1       -0.2470
      5 O           3.5318    3.7671   12.2230 O.3     1  LIG1       -0.4626
      6 C          -0.4988    6.8223   18.9381 C.3     1  LIG1        0.1322
      7 C          -1.6033    7.7305   18.7580 C.3     1  LIG1        0.0519
      8 C          -2.3576    7.5662   17.4711 C.2     1  LIG1        0.1705
      9 C          -2.1505    6.7183   15.1245 C.ar    1  LIG1       -0.0443
     10 C          -1.4267    6.1974   14.0973 C.ar    1  LIG1       -0.0190
     11 C          -0.1166    5.7820   14.3482 C.ar    1  LIG1        0.1248
     12 C           0.4462    5.8720   15.6027 C.ar    1  LIG1        0.0225
     13 C          -0.3253    6.4328   16.6240 C.ar    1  LIG1        0.1353
     14 C          -1.6220    6.8787   16.4085 C.ar    1  LIG1        0.0594
     15 C           1.8634    4.7957   13.4332 C.3     1  LIG1        0.1858
     16 C           2.3444    4.3130   12.0961 C.2     1  LIG1        0.3451
     17 C           4.1557    3.2485   11.0128 C.3     1  LIG1        0.0898
     18 C           5.0947    4.2317   10.4697 C.3     1  LIG1       -0.0306
     19 C           0.3507    6.9843   20.1660 C.ar    1  LIG1       -0.0069
     20 C           1.5535    7.6351   20.1040 C.ar    1  LIG1       -0.0551
     21 C           2.3292    7.7516   21.2463 C.ar    1  LIG1       -0.0614
     22 C           1.8873    7.2299   22.4152 C.ar    1  LIG1       -0.0617
     23 C           0.7062    6.6174   22.4860 C.ar    1  LIG1       -0.0614
     24 C          -0.0741    6.4766   21.3703 C.ar    1  LIG1       -0.0551
     25 H          -1.0465    6.0472   19.0827 H       1  LIG1        0.0789
     26 H          -2.2110    7.6835   19.4989 H       1  LIG1        0.0385
     27 H          -1.1949    8.5987   18.7315 H       1  LIG1        0.0385
     28 H           1.9144    4.0956   14.0943 H       1  LIG1        0.0815
     29 H           2.5126    5.5380   13.7018 H       1  LIG1        0.0815
     30 H          -1.7595    6.0714   13.2147 H       1  LIG1        0.0654
     31 H           3.4439    3.0537   10.3605 H       1  LIG1        0.0694
     32 H          -3.0425    7.0539   14.9917 H       1  LIG1        0.0627
     33 H           1.3520    5.5028   15.8211 H       1  LIG1        0.0691
     34 H           4.5588    2.4452   11.2843 H       1  LIG1        0.0694
     35 H           5.4829    3.9352    9.6668 H       1  LIG1        0.0262
     36 H           1.8768    8.0129   19.2716 H       1  LIG1        0.0621
     37 H           5.7474    4.3170   11.0954 H       1  LIG1        0.0262
     38 H           4.5804    5.1539   10.2542 H       1  LIG1        0.0262
     39 H           2.4801    7.4098   23.1974 H       1  LIG1        0.0618
     40 H           0.3874    6.2858   23.2239 H       1  LIG1        0.0618
     41 H           3.0750    8.3328   21.2168 H       1  LIG1        0.0618
     42 H          -0.9043    6.0871   21.3762 H       1  LIG1        0.0621
@<TRIPOS>BOND
     1    35    18    1
     2    38    18    1
     3    31    17    1
     4    18    17    1
     5    18    37    1
     6    17    34    1
     7    17     5    1
     8     4    16    2
     9    16     5    1
    10    16    15    1
    11    30    10    1
    12     3    15    1
    13     3    11    1
    14    15    29    1
    15    15    28    1
    16    10    11   ar
    17    10     9   ar
    18    11    12   ar
    19    32     9    1
    20     9    14   ar
    21    12    33    1
    22    12    13   ar
    23    14    13   ar
    24    14     8    1
    25    13     1    1
    26     2     8    2
    27     8     7    1
    28     1     6    1
    29    27     7    1
    30     7     6    1
    31     7    26    1
    32     6    25    1
    33     6    19    1
    34    36    20    1
    35    20    19   ar
    36    20    21   ar
    37    19    24   ar
    38    41    21    1
    39    21    22   ar
    40    24    42    1
    41    24    23   ar
    42    22    23   ar
    43    22    39    1
    44    23    40    1
