@<TRIPOS>MOLECULE
L-Isoleucine:D-aminobutyric acid
 38 36 0 0 0
SMALL
GASTEIGER

@<TRIPOS>ATOM
      1 O           5.1752   -0.8688    5.3823 O.co2   1  ILE1       -0.2400
      2 OXT         4.1893    0.5189    6.8453 O.co2   1  ILE1       -0.2400
      3 N           5.0244    0.9964    3.4365 N.4     1  ILE1        0.2291
      4 H1          5.0246    0.2801    3.0259 H       1  ILE1        0.2003
      5 H2          4.8991    1.6995    2.8053 H       1  ILE1        0.2003
      6 H3          5.8213    1.1725    3.8335 H       1  ILE1        0.2003
      7 C           4.5042    0.1505    5.6780 C.2     1  ILE1        0.4029
      8 CA          3.9720    0.9850    4.5011 C.3     1  ILE1        0.0811
      9 HA          3.8035    1.8988    4.8010 H       1  ILE1        0.0972
     10 CB          2.6638    0.3755    3.9493 C.3     1  ILE1        0.0095
     11 HB          2.8392   -0.5174    3.7381 H       1  ILE1        0.0358
     12 CG2         1.5716    0.3859    5.0145 C.3     1  ILE1       -0.0568
     13 HG21        1.8932   -0.0513    5.8073 H       1  ILE1        0.0234
     14 HG22        0.7982   -0.0779    4.6846 H       1  ILE1        0.0234
     15 HG23        1.3360    1.2931    5.2222 H       1  ILE1        0.0234
     16 CG1         2.2041    1.0705    2.6602 C.3     1  ILE1       -0.0477
     17 HG11        2.0589    2.0132    2.8477 H       1  ILE1        0.0267
     18 HG12        2.9151    1.0073    2.0000 H       1  ILE1        0.0267
     19 CD1         0.9278    0.4866    2.0639 C.3     1  ILE1       -0.0648
     20 HD11        0.7602    0.8925    1.1990 H       1  ILE1        0.0230
     21 HD12        0.1828    0.6693    2.6563 H       1  ILE1        0.0230
     22 HD13        1.0300   -0.4700    1.9570 H       1  ILE1        0.0230
     23 O           4.9116    4.6979   10.3330 O.co2   1  LIG1       -0.2400
     24 OXT         3.9749    3.3543   11.8605 O.co2   1  LIG1       -0.2400
     25 N           4.5752    2.8829    8.3668 N.4     1  LIG1        0.2289
     26 H1          4.5165    3.7597    7.9232 H       1  LIG1        0.2002
     27 H2          4.3577    2.2454    7.7822 H       1  LIG1        0.2002
     28 H3          5.4150    2.7438    8.6385 H       1  LIG1        0.2002
     29 C           4.2581    3.6871   10.6747 C.2     1  LIG1        0.4026
     30 CA          3.6722    2.8226    9.5545 C.3     1  LIG1        0.0783
     31 HA          3.6030    1.9416    9.8474 H       1  LIG1        0.0969
     32 C           2.2761    3.3576    9.2124 C.3     1  LIG1       -0.0019
     33 H           1.7427    3.3709   10.0213 H       1  LIG1        0.0323
     34 H           2.3621    4.2724    8.9037 H       1  LIG1        0.0323
     35 C           1.5364    2.5568    8.1557 C.3     1  LIG1       -0.0596
     36 H           0.6320    2.9921    7.9699 H       1  LIG1        0.0232
     37 H           1.3922    1.6045    8.4905 H       1  LIG1        0.0232
     38 H           2.0862    2.5350    7.2964 H       1  LIG1        0.0232
@<TRIPOS>BOND
     1    20    19    1
     2    22    19    1
     3    18    16    1
     4    19    21    1
     5    19    16    1
     6    16    17    1
     7    16    10    1
     8     5     3    1
     9     4     3    1
    10     3     6    1
    11     3     8    1
    12    11    10    1
    13    10     8    1
    14    10    12    1
    15     8     9    1
    16     8     7    1
    17    14    12    1
    18    12    15    1
    19    12    13    1
    20     1     7   ar
    21     7     2   ar
    22    38    35    1
    23    27    25    1
    24    26    25    1
    25    36    35    1
    26    35    37    1
    27    35    32    1
    28    25    28    1
    29    25    30    1
    30    34    32    1
    31    32    30    1
    32    32    33    1
    33    30    31    1
    34    30    29    1
    35    23    29   ar
    36    29    24   ar
