@<TRIPOS>MOLECULE
?
 91 86 0 0 0
SMALL
GASTEIGER

@<TRIPOS>ATOM
      1 C           4.4985    3.6331   -0.6047 C.ar    1  LIG1       -0.0269
      2 C           3.1630    3.6933   -0.0064 C.ar    1  LIG1       -0.0137
      3 C           2.4161    2.4763    0.2393 C.ar    1  LIG1       -0.0537
      4 C           1.2375    2.5543    0.8375 C.ar    1  LIG1       -0.0612
      5 C           0.6450    3.7802    1.2145 C.ar    1  LIG1       -0.0612
      6 C           1.2946    4.8679    0.9662 C.ar    1  LIG1       -0.0537
      7 C           2.5714    4.9459    0.3345 C.ar    1  LIG1       -0.0137
      8 C           3.2500    6.1451    0.0360 C.ar    1  LIG1       -0.0269
      9 C           4.5271    6.0938   -0.6626 C.ar    1  LIG1       -0.0137
     10 C           5.1801    7.2840   -1.0974 C.ar    1  LIG1       -0.0537
     11 C           6.3919    7.1815   -1.7291 C.ar    1  LIG1       -0.0612
     12 C           7.0223    5.9824   -1.9697 C.ar    1  LIG1       -0.0612
     13 C           6.4292    4.9103   -1.6185 C.ar    1  LIG1       -0.0537
     14 C           5.1397    4.8122   -0.9289 C.ar    1  LIG1       -0.0137
     15 C           2.6714    7.4913    0.4632 C.3     1  LIG1        0.0138
     16 C           3.5233    8.2358    1.4769 C.3     1  LIG1       -0.0276
     17 C           5.1521    2.2556   -0.7886 C.3     1  LIG1        0.0138
     18 C           5.4654    1.5246    0.4850 C.3     1  LIG1       -0.0276
     19 N           6.3698    2.2735    1.4152 N.4     1  LIG1        0.2387
     20 C           7.7560    2.3203    0.8478 C.3     1  LIG1       -0.0078
     21 C           8.6849    3.3545    1.5528 C.3     1  LIG1        0.0876
     22 O           8.0836    4.6629    1.3534 O.3     1  LIG1       -0.3723
     23 C           8.8389    5.6347    1.9722 C.3     1  LIG1        0.0713
     24 C           8.0974    6.9453    1.8449 C.3     1  LIG1        0.0713
     25 O           6.9381    6.9386    2.6322 O.3     1  LIG1       -0.3723
     26 C           6.3224    8.2090    2.7789 C.3     1  LIG1        0.0876
     27 C           5.0013    8.0196    3.5238 C.3     1  LIG1       -0.0078
     28 N           3.9004    7.3888    2.7313 N.4     1  LIG1        0.2387
     29 C           2.6584    7.2751    3.5817 C.3     1  LIG1       -0.0078
     30 C           2.7851    6.3479    4.6688 C.3     1  LIG1        0.0876
     31 O           2.9827    5.0306    4.1375 O.3     1  LIG1       -0.3723
     32 C           3.0297    3.9853    5.1165 C.3     1  LIG1        0.0713
     33 C           3.3620    2.6524    4.4591 C.3     1  LIG1        0.0713
     34 O           4.6785    2.7861    3.9149 O.3     1  LIG1       -0.3723
     35 C           5.1570    1.4867    3.5380 C.3     1  LIG1        0.0876
     36 C           6.4578    1.6427    2.7956 C.3     1  LIG1       -0.0078
     37 CL          7.2591    2.0706   -4.3729 Cl      1  LIG1        0.1011
     38 O           8.2344    1.4934   -5.2490 O.3     2  HOH2        0.0000
     39 O           5.9868    1.4844   -4.5234 O.3     3  HOH3        0.0000
     40 O           7.2047    3.4637   -4.5028 O.3     1  LIG1       -0.1011
     41 O           7.6889    1.7742   -3.0105 O.3     4  HOH4        0.0000
     42 CL          4.5299   11.2671   -0.8890 Cl      2  HOH2        0.1011
     43 O           4.8460   11.1824   -2.2823 O.3     5  HOH5        0.0000
     44 O           4.4132   12.6356   -0.5596 O.3     2  HOH2       -0.1011
     45 O           5.5419   10.6452   -0.1081 O.3     6  HOH6        0.0000
     46 O           3.2963   10.6118   -0.6716 O.3     7  HOH7        0.0000
     47 O           5.2031    4.8278    2.2681 O.3     8  HOH8       -0.4105
     48 H           5.9209    3.2743    1.5709 H       1  LIG1        0.2035
     49 H           4.1068    6.4460    2.4714 H       1  LIG1        0.2035
     50 H           2.8429    1.4934    0.0412 H       1  LIG1        0.0624
     51 H           0.7541    1.6940    1.2003 H       1  LIG1        0.0618
     52 H          -0.2913    4.0789    1.8050 H       1  LIG1        0.0618
     53 H           0.7881    5.7015    1.3097 H       1  LIG1        0.0624
     54 H           6.8744    7.8591   -1.9478 H       1  LIG1        0.0618
     55 H           7.7276    6.0292   -2.3891 H       1  LIG1        0.0618
     56 H           6.9088    4.2193   -1.7934 H       1  LIG1        0.0624
     57 H           2.6740    8.0508   -0.2509 H       1  LIG1        0.0365
     58 H           1.7764    7.4133    0.7874 H       1  LIG1        0.0365
     59 H           4.6124    1.5424   -1.3972 H       1  LIG1        0.0365
     60 H           6.0648    2.4028   -1.2698 H       1  LIG1        0.0365
     61 H           8.5556    7.6184    2.0713 H       1  LIG1        0.0583
     62 H           7.9120    6.8271    0.7951 H       1  LIG1        0.0583
     63 H           6.8881    8.8443    3.3771 H       1  LIG1        0.0613
     64 H           6.2674    8.6281    1.7883 H       1  LIG1        0.0613
     65 H           5.1336    7.3309    4.4205 H       1  LIG1        0.0837
     66 H           4.6481    8.9022    3.6936 H       1  LIG1        0.0837
     67 H           2.4947    8.0664    3.9458 H       1  LIG1        0.0837
     68 H           2.0188    7.0701    2.9847 H       1  LIG1        0.0837
     69 H           3.4954    6.6154    5.2812 H       1  LIG1        0.0613
     70 H           1.8945    6.3903    5.1873 H       1  LIG1        0.0613
     71 H           3.9461    4.3062    5.6865 H       1  LIG1        0.0583
     72 H           2.0970    4.0811    5.5758 H       1  LIG1        0.0583
     73 H           3.4263    1.6605    5.0110 H       1  LIG1        0.0583
     74 H           2.6122    2.3136    3.7399 H       1  LIG1        0.0583
     75 H           5.1247    0.8069    4.4076 H       1  LIG1        0.0613
     76 H           4.3649    1.0565    2.9616 H       1  LIG1        0.0613
     77 H           5.0829    4.2305    3.1880 H       0  HOH0        0.2052
     78 H           6.1886    4.8479    2.4277 H       0  HOH0        0.2052
     79 H           4.6743    8.2603   -0.9212 H       1  LIG1        0.0624
     80 H           4.4233    8.5099    0.9598 H       1  LIG1        0.0818
     81 H           2.9917    9.1429    1.8693 H       1  LIG1        0.0818
     82 H           4.5021    1.3329    1.0241 H       1  LIG1        0.0818
     83 H           6.0131    0.5483    0.2419 H       1  LIG1        0.0818
     84 H           8.1929    1.2593    0.9353 H       1  LIG1        0.0837
     85 H           7.6432    2.5409   -0.1608 H       1  LIG1        0.0837
     86 H           8.7502    3.0937    2.5885 H       1  LIG1        0.0613
     87 H           9.7071    3.3456    1.0511 H       1  LIG1        0.0613
     88 H           9.0128    5.3248    2.9770 H       1  LIG1        0.0583
     89 H           9.8458    5.6347    1.4679 H       1  LIG1        0.0583
     90 H           7.1584    2.2534    3.3797 H       1  LIG1        0.0837
     91 H           6.9256    0.6464    2.6284 H       1  LIG1        0.0837
@<TRIPOS>BOND
     1    40    37    1
     2    55    12    1
     3    12    11   ar
     4    12    13   ar
     5    54    11    1
     6    56    13    1
     7    11    10   ar
     8    13    14   ar
     9    59    17    1
    10    60    17    1
    11    10    79    1
    12    10     9   ar
    13    14     9   ar
    14    14     1   ar
    15    42    44    1
    16    17     1    1
    17    17    18    1
    18     9     8   ar
    19     1     2   ar
    20    57    15    1
    21    85    20    1
    22     2     3   ar
    23     2     7   ar
    24     8     7   ar
    25     8    15    1
    26    50     3    1
    27     3     4   ar
    28    83    18    1
    29     7     6   ar
    30    15    58    1
    31    15    16    1
    32    18    82    1
    33    18    19    1
    34    62    24    1
    35     4    51    1
    36     4     5   ar
    37    20    84    1
    38    20    19    1
    39    20    21    1
    40    80    16    1
    41     6     5   ar
    42     6    53    1
    43    87    21    1
    44     5    52    1
    45    22    21    1
    46    22    23    1
    47    19    48    1
    48    19    36    1
    49    89    23    1
    50    16    81    1
    51    16    28    1
    52    21    86    1
    53    64    26    1
    54    24    23    1
    55    24    61    1
    56    24    25    1
    57    23    88    1
    58    47    78    1
    59    47    77    1
    60    49    28    1
    61    91    36    1
    62    25    26    1
    63    28    27    1
    64    28    29    1
    65    26    63    1
    66    26    27    1
    67    36    90    1
    68    36    35    1
    69    76    35    1
    70    68    29    1
    71    27    66    1
    72    27    65    1
    73    35    34    1
    74    35    75    1
    75    29    67    1
    76    29    30    1
    77    74    33    1
    78    34    33    1
    79    31    30    1
    80    31    32    1
    81    33    73    1
    82    33    32    1
    83    30    70    1
    84    30    69    1
    85    32    72    1
    86    32    71    1
