@<TRIPOS>MOLECULE
C17 H19 N3
 78 86 0 0 0
SMALL
GASTEIGER

@<TRIPOS>ATOM
      1 C           8.2881    3.5640   -0.4995 C.3     1  LIG1        0.1488
      2 N           7.5758    4.7466   -0.0556 N.pl3   1  LIG1       -0.2984
      3 C           7.8121    5.8536   -0.9978 C.3     1  LIG1        0.0163
      4 C           9.2994    6.1782   -1.0383 C.3     1  LIG1       -0.0242
      5 C          10.0741    4.9261   -1.4101 C.3     1  LIG1        0.0034
      6 N           9.7429    3.7950   -0.5236 N.3     1  LIG1       -0.2689
      7 C          10.4273    2.6022   -1.0459 C.3     1  LIG1        0.0034
      8 C          10.0404    1.3423   -0.2807 C.3     1  LIG1       -0.0242
      9 C           8.5404    1.2195   -0.2567 C.3     1  LIG1        0.0163
     10 N           7.9575    2.4304    0.3149 N.pl3   1  LIG1       -0.2984
     11 C           8.0579    2.6159    1.7060 C.ar    1  LIG1        0.0416
     12 C           8.2987    1.5871    2.5799 C.ar    1  LIG1       -0.0399
     13 C           8.3096    1.8284    3.9747 C.ar    1  LIG1       -0.0594
     14 C           8.0811    3.0573    4.4705 C.ar    1  LIG1       -0.0539
     15 C           7.8122    4.1437    3.6017 C.ar    1  LIG1       -0.0143
     16 C           7.5342    5.4319    4.0848 C.ar    1  LIG1       -0.0539
     17 C           7.2823    6.4504    3.2261 C.ar    1  LIG1       -0.0594
     18 C           7.3190    6.2555    1.8362 C.ar    1  LIG1       -0.0399
     19 C           7.5883    5.0163    1.3114 C.ar    1  LIG1        0.0416
     20 C           7.8184    3.9204    2.1954 C.ar    1  LIG1        0.0243
     21 C          -0.5183    2.2312    4.3251 C.3     2  LIG2        0.1488
     22 N           0.2959    3.3605    4.6817 N.pl3   2  LIG2       -0.2984
     23 C          -0.2519    4.5757    4.1012 C.3     2  LIG2        0.0163
     24 C          -0.2660    4.4580    2.5925 C.3     2  LIG2       -0.0242
     25 C          -1.0221    3.2171    2.1903 C.3     2  LIG2        0.0034
     26 N          -0.5181    2.0147    2.8720 N.3     2  LIG2       -0.2689
     27 C          -1.3928    0.8897    2.5179 C.3     2  LIG2        0.0034
     28 C          -1.0527   -0.3581    3.2906 C.3     2  LIG2       -0.0242
     29 C          -1.0589   -0.0429    4.7803 C.3     2  LIG2        0.0163
     30 N          -0.1111    1.0529    5.0484 N.pl3   2  LIG2       -0.2984
     31 C           1.2594    0.7746    5.0661 C.ar    2  LIG2        0.0416
     32 C           1.7687   -0.4680    5.3443 C.ar    2  LIG2       -0.0399
     33 C           3.1553   -0.6656    5.3873 C.ar    2  LIG2       -0.0594
     34 C           4.0338    0.3203    5.1319 C.ar    2  LIG2       -0.0539
     35 C           3.5600    1.6206    4.8486 C.ar    2  LIG2       -0.0143
     36 C           4.4403    2.7009    4.5843 C.ar    2  LIG2       -0.0539
     37 C           3.9494    3.9333    4.3554 C.ar    2  LIG2       -0.0594
     38 C           2.5728    4.1901    4.3554 C.ar    2  LIG2       -0.0399
     39 C           1.6828    3.1604    4.5932 C.ar    2  LIG2        0.0416
     40 C           2.1623    1.8593    4.8233 C.ar    2  LIG2        0.0243
     41 H           8.0121    3.3665   -1.4164 H       1  LIG1        0.0893
     42 H           7.3154    6.6299   -0.7082 H       1  LIG1        0.0465
     43 H           7.5124    5.5736   -1.8970 H       1  LIG1        0.0465
     44 H           9.5973    6.4839   -0.1518 H       1  LIG1        0.0293
     45 H           9.4766    6.8618   -1.7073 H       1  LIG1        0.0293
     46 H          11.0275    5.1013   -1.3405 H       1  LIG1        0.0428
     47 H           9.8668    4.6719   -2.3396 H       1  LIG1        0.0428
     48 H          11.3956    2.7224   -0.9738 H       1  LIG1        0.0428
     49 H          10.1727    2.4733   -1.9855 H       1  LIG1        0.0428
     50 H          10.3675    1.3913    0.6450 H       1  LIG1        0.0293
     51 H          10.4242    0.5410   -0.7208 H       1  LIG1        0.0293
     52 H           8.2748    0.4294    0.2909 H       1  LIG1        0.0465
     53 H           8.2116    1.0907   -1.1761 H       1  LIG1        0.0465
     54 H           8.4601    0.6699    2.2384 H       1  LIG1        0.0636
     55 H           8.4954    1.0735    4.5906 H       1  LIG1        0.0618
     56 H           8.1049    3.1947    5.4379 H       1  LIG1        0.0624
     57 H           7.5370    5.5822    5.0459 H       1  LIG1        0.0624
     58 H           7.0712    7.3256    3.5789 H       1  LIG1        0.0618
     59 H           7.1484    6.9992    1.2393 H       1  LIG1        0.0636
     60 H          -1.4452    2.4562    4.5906 H       2  LIG2        0.0893
     61 H           0.3049    5.3503    4.3630 H       2  LIG2        0.0465
     62 H          -1.1711    4.7148    4.4262 H       2  LIG2        0.0465
     63 H           0.6571    4.4142    2.2637 H       2  LIG2        0.0293
     64 H          -0.6988    5.2559    2.2131 H       2  LIG2        0.0293
     65 H          -0.9417    3.1089    1.2267 H       2  LIG2        0.0428
     66 H          -1.9692    3.3493    2.4155 H       2  LIG2        0.0428
     67 H          -1.2886    0.7128    1.5555 H       2  LIG2        0.0428
     68 H          -2.3264    1.1508    2.7063 H       2  LIG2        0.0428
     69 H          -0.1684   -0.6613    3.0225 H       2  LIG2        0.0293
     70 H          -1.7081   -1.0391    3.0984 H       2  LIG2        0.0293
     71 H          -0.7948   -0.8330    5.2862 H       2  LIG2        0.0465
     72 H          -1.9639    0.2405    5.0585 H       2  LIG2        0.0465
     73 H           1.1545   -1.2109    5.5138 H       2  LIG2        0.0636
     74 H           3.4889   -1.5458    5.6150 H       2  LIG2        0.0618
     75 H           5.0025    0.1546    5.1344 H       2  LIG2        0.0624
     76 H           5.4015    2.5678    4.5653 H       2  LIG2        0.0624
     77 H           4.5686    4.6805    4.1859 H       2  LIG2        0.0618
     78 H           2.2281    5.1099    4.1859 H       2  LIG2        0.0636
@<TRIPOS>BOND
     1    47     5    1
     2    49     7    1
     3    43     3    1
     4    45     4    1
     5    41     1    1
     6     5    46    1
     7     5     4    1
     8     5     6    1
     9    53     9    1
    10     7    48    1
    11     7     6    1
    12     7     8    1
    13     4     3    1
    14     4    44    1
    15     3    42    1
    16     3     2    1
    17    51     8    1
    18     6     1    1
    19     1     2    1
    20     1    10    1
    21     8     9    1
    22     8    50    1
    23     9    52    1
    24     9    10    1
    25     2    19    1
    26    10    11    1
    27    65    25    1
    28    59    18    1
    29    19    18   ar
    30    19    20   ar
    31    67    27    1
    32    11    20   ar
    33    11    12   ar
    34    18    17   ar
    35    25    66    1
    36    25    24    1
    37    25    26    1
    38    20    15   ar
    39    64    24    1
    40    54    12    1
    41    63    24    1
    42    27    68    1
    43    27    26    1
    44    27    28    1
    45    12    13   ar
    46    24    23    1
    47    26    21    1
    48    69    28    1
    49    70    28    1
    50    17    58    1
    51    17    16   ar
    52    28    29    1
    53    15    16   ar
    54    15    14   ar
    55    13    14   ar
    56    13    55    1
    57    16    57    1
    58    23    61    1
    59    23    62    1
    60    23    22    1
    61    77    37    1
    62    78    38    1
    63    21    60    1
    64    21    22    1
    65    21    30    1
    66    38    37   ar
    67    38    39   ar
    68    37    36   ar
    69    14    56    1
    70    76    36    1
    71    36    35   ar
    72    39    22    1
    73    39    40   ar
    74    29    30    1
    75    29    72    1
    76    29    71    1
    77    40    35   ar
    78    40    31   ar
    79    35    34   ar
    80    30    31    1
    81    31    32   ar
    82    34    75    1
    83    34    33   ar
    84    32    33   ar
    85    32    73    1
    86    33    74    1
