@<TRIPOS>MOLECULE
?
 24 24 0 0 0
SMALL
GASTEIGER

@<TRIPOS>ATOM
      1 CL          7.0215    3.3863    8.9609 Cl      1  LIG1       -0.0786
      2 CL          8.6292    5.2717    7.4678 Cl      1  LIG1       -0.0786
      3 CL          6.7698    3.5651    6.1018 Cl      1  LIG1       -0.0786
      4 N           4.9412    5.7640    7.0792 N.3     1  LIG1       -0.2168
      5 H           4.8942    5.2332    6.3614 H       1  LIG1        0.1439
      6 N           0.5629    5.7347   11.9105 N.pl3   1  LIG1        0.0564
      7 O           6.2533    6.2531    8.8776 O.3     1  LIG1       -0.3454
      8 O           0.4139    4.5526   12.1907 O.2     1  LIG1       -0.1261
      9 O          -0.2488    6.6020   12.1879 O.2     1  LIG1       -0.1261
     10 C           7.0390    4.4875    7.5798 C.3     1  LIG1        0.2378
     11 C           5.9504    5.5534    7.7727 C.3     1  LIG1        0.2285
     12 C           5.3531    7.3260    9.2131 C.3     1  LIG1        0.0753
     13 H           5.1085    7.7602    8.4861 H       1  LIG1        0.0611
     14 H           5.9188    7.9046    9.8134 H       1  LIG1        0.0611
     15 C           4.1070    6.8538    9.9158 C.ar    1  LIG1       -0.0217
     16 C           3.0929    7.7787   10.1353 C.ar    1  LIG1       -0.0542
     17 H           3.2173    8.5223    9.7993 H       1  LIG1        0.0622
     18 C           1.9319    7.4324   10.7877 C.ar    1  LIG1       -0.0312
     19 H           1.3276    8.0370   10.9297 H       1  LIG1        0.0640
     20 C           1.7956    6.1298   11.2187 C.ar    1  LIG1        0.1262
     21 C           2.7760    5.1876   11.0172 C.ar    1  LIG1       -0.0312
     22 H           2.6108    4.3409   11.3424 H       1  LIG1        0.0640
     23 C           3.9419    5.5632   10.3818 C.ar    1  LIG1       -0.0542
     24 H           4.6355    4.9911   10.2308 H       1  LIG1        0.0622
@<TRIPOS>BOND
     1     3    10    1
     2     5     4    1
     3     4    11    1
     4     2    10    1
     5    10    11    1
     6    10     1    1
     7    11     7    1
     8    13    12    1
     9     7    12    1
    10    12    14    1
    11    12    15    1
    12    17    16    1
    13    15    16   ar
    14    15    23   ar
    15    16    18   ar
    16    24    23    1
    17    23    21   ar
    18    18    19    1
    19    18    20   ar
    20    21    20   ar
    21    21    22    1
    22    20     6    1
    23     6     9    2
    24     6     8    2
