@<TRIPOS>MOLECULE
C2 H7 N5 S1
 15 14 0 0 0
SMALL
GASTEIGER

@<TRIPOS>ATOM
      1 S           0.7224    1.1485   11.8660 S.2     1  LIG1       -0.0241
      2 N          -1.1742    0.1546   13.5366 N.am    1  LIG1       -0.1563
      3 N          -0.1278   -0.2001   14.3467 N.3     1  LIG1       -0.2346
      4 N          -3.2408    0.9002   12.1073 N.pl3   1  LIG1       -0.1600
      5 N          -4.3905    1.1350   11.3296 N.3     1  LIG1       -0.1824
      6 N          -1.8967    1.5451   10.3991 N.2     1  LIG1       -0.2854
      7 C          -0.8638    0.7654   12.4408 C.2     1  LIG1        0.1976
      8 C          -2.0556    1.0925   11.6113 C.2     1  LIG1        0.3105
      9 H           0.6476   -0.2937   13.9003 H       1  LIG1        0.1424
     10 H          -0.3819   -0.8314   14.8291 H       1  LIG1        0.1424
     11 H          -3.3442    0.6356   12.8303 H       1  LIG1        0.3174
     12 H          -4.7346    1.8324   11.6733 H       1  LIG1        0.1653
     13 H          -4.9305    0.4661   11.4411 H       1  LIG1        0.1653
     14 H          -2.5359    1.7054    9.7964 H       1  LIG1        0.3010
     15 H          -1.1674    1.6884   10.0905 H       1  LIG1        0.3010
@<TRIPOS>BOND
     1    14     6    1
     2    15     6    1
     3     6     8    2
     4     5    13    1
     5     5    12    1
     6     5     4    1
     7     8     4    1
     8     8     7    1
     9     1     7    2
    10     4    11    1
    11     7     2    1
    12     2     3    1
    13     9     3    1
    14     3    10    1
