@<TRIPOS>MOLECULE
C4 H7 N3 O2
 16 16 0 0 0
SMALL
GASTEIGER

@<TRIPOS>ATOM
      1 N           4.8220    2.3525    2.8257 N.4     1  LIG1       -0.0248
      2 O           5.3470    1.6818    3.6578 O.3     1  LIG1       -0.0960
      3 N           4.0663    3.3403    3.0593 N.am    1  LIG1       -0.0815
      4 C           3.6692    3.8126    1.8044 C.2     1  LIG1        0.3381
      5 O           2.9176    4.7341    1.6950 O.2     1  LIG1       -0.2495
      6 N           4.2365    3.0946    0.8583 N.am    1  LIG1       -0.2755
      7 C           5.0438    2.0694    1.3758 C.3     1  LIG1        0.1308
      8 C           4.5427    0.6998    1.0532 C.3     1  LIG1       -0.0263
      9 C           6.4731    2.2795    1.1170 C.3     1  LIG1       -0.0263
     10 H           3.5849    3.2349   -0.4206 H       1  LIG1        0.1522
     11 H           3.5464    0.5064    1.2926 H       1  LIG1        0.0265
     12 H           4.2829    0.6209   -0.0433 H       1  LIG1        0.0265
     13 H           5.1963    0.1137    1.4613 H       1  LIG1        0.0265
     14 H           6.4076    2.1865    0.1402 H       1  LIG1        0.0265
     15 H           6.9879    1.7150    1.5274 H       1  LIG1        0.0265
     16 H           7.1089    3.1660    1.6950 H       1  LIG1        0.0265
@<TRIPOS>BOND
     1    10     6    1
     2    12     8    1
     3    14     9    1
     4     6     7    1
     5     6     4   am
     6     8    11    1
     7     8     7    1
     8     8    13    1
     9     9     7    1
    10     9    15    1
    11     9    16    1
    12     7     1    1
    13     5     4    2
    14     4     3   am
    15     1     3    1
    16     1     2    1
