@<TRIPOS>MOLECULE
(+)-(2S,5R)-2-[(1'S)-1'-(N,N-dimethylsulfamoyl)-2'-methyl-1'-phenylprop- 2'-yl]-5-methylcyclohexan-1-one
 53 54 0 0 0
SMALL
GASTEIGER

@<TRIPOS>ATOM
      1 S           5.0808    0.2052   -0.4643 S.O2    1  LIG1        0.0388
      2 O           7.8746    2.2429    2.2712 O.2     1  LIG1       -0.2971
      3 O           4.0965    1.0001    0.2154 O.2     1  LIG1       -0.1574
      4 O           4.7442   -1.1381   -0.8499 O.2     1  LIG1       -0.1574
      5 N           5.4686    1.0141   -1.8321 N.3     1  LIG1       -0.1866
      6 C           8.4658    1.2514    2.6567 C.2     1  LIG1        0.1372
      7 C           7.8585   -0.1543    2.6893 C.3     1  LIG1        0.0248
      8 C           7.9376   -0.6257    4.1642 C.3     1  LIG1       -0.0427
      9 C           9.3726   -0.6084    4.6926 C.3     1  LIG1       -0.0494
     10 C           9.9569    0.7918    4.6369 C.3     1  LIG1       -0.0372
     11 C           9.8715    1.3345    3.2009 C.3     1  LIG1        0.0087
     12 C          11.3913    0.8706    5.1527 C.3     1  LIG1       -0.0620
     13 C           6.4565   -0.3215    2.0306 C.3     1  LIG1        0.0024
     14 C           5.3833    0.4628    2.8164 C.3     1  LIG1       -0.0571
     15 C           6.0753   -1.8167    2.0548 C.3     1  LIG1       -0.0571
     16 C           6.5866    0.2298    0.5568 C.3     1  LIG1        0.1235
     17 C           5.7987    2.4295   -1.7249 C.3     1  LIG1        0.0083
     18 C           6.0616    0.3172   -2.9771 C.3     1  LIG1        0.0083
     19 C           7.7420   -0.3064   -0.2689 C.ar    1  LIG1       -0.0215
     20 C           8.7635    0.5675   -0.6366 C.ar    1  LIG1       -0.0567
     21 C           9.8149    0.1489   -1.4465 C.ar    1  LIG1       -0.0614
     22 C           9.8678   -1.1468   -1.8846 C.ar    1  LIG1       -0.0617
     23 C           8.8744   -2.0368   -1.5243 C.ar    1  LIG1       -0.0614
     24 C           7.8087   -1.6279   -0.7280 C.ar    1  LIG1       -0.0567
     25 H           8.4770   -0.7012    2.1745 H       1  LIG1        0.0383
     26 H           9.4299    1.3377    5.1895 H       1  LIG1        0.0302
     27 H           6.6770    1.2083    0.6513 H       1  LIG1        0.0607
     28 H           8.7324    1.4888   -0.3151 H       1  LIG1        0.0621
     29 H          10.4763    0.7767   -1.7123 H       1  LIG1        0.0618
     30 H          10.5573   -1.4780   -2.4372 H       1  LIG1        0.0618
     31 H           8.8445   -2.8696   -1.8174 H       1  LIG1        0.0618
     32 H           7.0693   -2.2116   -0.5253 H       1  LIG1        0.0621
     33 H           7.4181   -0.0539    4.7062 H       1  LIG1        0.0272
     34 H           7.5053   -1.5427    4.2545 H       1  LIG1        0.0272
     35 H           9.9781   -1.2730    4.1495 H       1  LIG1        0.0268
     36 H           9.3614   -0.9170    5.6202 H       1  LIG1        0.0268
     37 H          10.4327    0.7875    2.6473 H       1  LIG1        0.0344
     38 H          10.1525    2.2223    3.1410 H       1  LIG1        0.0344
     39 H          12.0023    0.3129    4.5382 H       1  LIG1        0.0233
     40 H          11.4293    0.6149    6.0824 H       1  LIG1        0.0233
     41 H          11.8030    1.7585    5.1685 H       1  LIG1        0.0233
     42 H           5.4375    0.1834    3.7608 H       1  LIG1        0.0236
     43 H           4.5032    0.2481    2.5317 H       1  LIG1        0.0236
     44 H           5.4686    1.4672    2.7838 H       1  LIG1        0.0236
     45 H           5.2631   -1.9526    1.4812 H       1  LIG1        0.0236
     46 H           6.7766   -2.4381    1.7123 H       1  LIG1        0.0236
     47 H           5.8735   -2.1037    2.9624 H       1  LIG1        0.0236
     48 H           5.5122    2.8588   -2.5317 H       1  LIG1        0.0408
     49 H           5.4063    2.7617   -0.9665 H       1  LIG1        0.0408
     50 H           6.8327    2.5136   -1.6493 H       1  LIG1        0.0408
     51 H           5.7551    0.7983   -3.7083 H       1  LIG1        0.0408
     52 H           7.0071    0.3344   -2.9834 H       1  LIG1        0.0408
     53 H           5.8174   -0.6689   -2.9729 H       1  LIG1        0.0408
@<TRIPOS>BOND
     1    51    18    1
     2    52    18    1
     3    18    53    1
     4    18     5    1
     5    48    17    1
     6    30    22    1
     7    22    23   ar
     8    22    21   ar
     9     5    17    1
    10     5     1    1
    11    31    23    1
    12    17    50    1
    13    17    49    1
    14    29    21    1
    15    23    24   ar
    16    21    20   ar
    17     4     1    2
    18    24    32    1
    19    24    19   ar
    20    20    28    1
    21    20    19   ar
    22     1     3    2
    23     1    16    1
    24    19    16    1
    25    16    27    1
    26    16    13    1
    27    45    15    1
    28    46    15    1
    29    13    15    1
    30    13     7    1
    31    13    14    1
    32    15    47    1
    33    25     7    1
    34     2     6    2
    35    43    14    1
    36    37    11    1
    37     6     7    1
    38     6    11    1
    39     7     8    1
    40    44    14    1
    41    14    42    1
    42    38    11    1
    43    11    10    1
    44    35     9    1
    45     8    34    1
    46     8     9    1
    47     8    33    1
    48    39    12    1
    49    10     9    1
    50    10    12    1
    51    10    26    1
    52     9    36    1
    53    12    41    1
    54    12    40    1
