@<TRIPOS>MOLECULE
(-)-(1S,2S,5R)-1-(N,N-Dimethylsulfamoylmethyl)-2-isopropyl-5-methylcyclohexan- 1-ol
 90 90 0 0 0
SMALL
GASTEIGER

@<TRIPOS>ATOM
      1 S          -1.7123    2.4391   12.8756 S.O2    1  LIG1        0.0341
      2 O          -0.6185    1.3174    9.8410 O.3     1  LIG1       -0.3866
      3 O          -2.7169    3.4573   12.9903 O.2     1  LIG1       -0.1579
      4 O          -0.3636    2.8416   12.5797 O.2     1  LIG1       -0.1579
      5 N          -1.6672    1.6623   14.3045 N.3     1  LIG1       -0.1871
      6 C          -1.9867    1.5731   10.1594 C.3     1  LIG1        0.0900
      7 C          -2.8242    0.5798    9.2955 C.3     1  LIG1       -0.0082
      8 C          -2.7286    0.9682    7.8120 C.3     1  LIG1       -0.0471
      9 C          -3.1654    2.4010    7.5492 C.3     1  LIG1       -0.0500
     10 C          -2.3069    3.3790    8.3431 C.3     1  LIG1       -0.0412
     11 C          -2.3765    3.0254    9.8357 C.3     1  LIG1       -0.0195
     12 C          -2.7206    4.8259    8.1053 C.3     1  LIG1       -0.0623
     13 C          -2.2461    1.2402   11.6573 C.3     1  LIG1        0.1108
     14 C          -2.9500    1.1706   14.8276 C.3     1  LIG1        0.0083
     15 C          -0.5226    0.7746   14.5779 C.3     1  LIG1        0.0083
     16 C          -2.5284   -0.9236    9.5279 C.3     1  LIG1       -0.0412
     17 C          -3.7966   -1.7450    9.2994 C.3     1  LIG1       -0.0623
     18 C          -1.3856   -1.4806    8.6786 C.3     1  LIG1       -0.0623
     19 S           3.7236    2.4584   12.9530 S.O2    2  LIG2        0.0341
     20 O           1.5137    3.0777   10.6013 O.3     2  LIG2       -0.3866
     21 O           4.9983    1.8146   12.8699 O.2     2  LIG2       -0.1579
     22 O           2.5333    1.6427   12.9085 O.2     2  LIG2       -0.1579
     23 N           3.6584    3.2811   14.3586 N.3     2  LIG2       -0.1871
     24 C           2.9215    3.2419   10.3403 C.3     2  LIG2        0.0900
     25 C           3.0580    4.3418    9.2690 C.3     2  LIG2       -0.0082
     26 C           2.3762    3.8795    7.9679 C.3     2  LIG2       -0.0471
     27 C           2.9600    2.5729    7.4501 C.3     2  LIG2       -0.0500
     28 C           2.8682    1.4621    8.4910 C.3     2  LIG2       -0.0412
     29 C           3.5052    1.9245    9.8053 C.3     2  LIG2       -0.0195
     30 C           3.5184    0.1752    7.9877 C.3     2  LIG2       -0.0623
     31 C           3.6163    3.6880   11.6401 C.3     2  LIG2        0.1108
     32 C           4.7994    4.1492   14.6941 C.3     2  LIG2        0.0083
     33 C           2.3421    3.8610   14.6955 C.3     2  LIG2        0.0083
     34 C           2.6358    5.7713    9.6838 C.3     2  LIG2       -0.0412
     35 C           3.2924    6.8081    8.7710 C.3     2  LIG2       -0.0623
     36 C           1.1303    6.0150    9.7142 C.3     2  LIG2       -0.0623
     37 H          -0.1924    1.8386   10.0920 H       1  LIG1        0.2102
     38 H          -3.7285    0.7180    9.5768 H       1  LIG1        0.0331
     39 H          -1.4152    3.2746    8.0313 H       1  LIG1        0.0299
     40 H          -3.2609    0.2937    7.3180 H       1  LIG1        0.0269
     41 H          -1.7533    0.9138    7.4897 H       1  LIG1        0.0269
     42 H          -3.1073    2.6654    6.5783 H       1  LIG1        0.0268
     43 H          -4.0379    2.5566    7.8068 H       1  LIG1        0.0268
     44 H          -1.8404    3.5901   10.2901 H       1  LIG1        0.0296
     45 H          -3.2395    3.1875   10.1052 H       1  LIG1        0.0296
     46 H          -2.6938    4.9935    7.1727 H       1  LIG1        0.0232
     47 H          -2.1144    5.4613    8.5597 H       1  LIG1        0.0232
     48 H          -3.5949    5.0043    8.4144 H       1  LIG1        0.0232
     49 H          -1.7561    0.4896   11.8356 H       1  LIG1        0.0544
     50 H          -3.1305    1.1314   11.8092 H       1  LIG1        0.0544
     51 H          -3.1633    0.2829   14.4247 H       1  LIG1        0.0408
     52 H          -3.7316    1.8494   14.6360 H       1  LIG1        0.0408
     53 H          -2.8998    1.0770   15.7984 H       1  LIG1        0.0408
     54 H          -0.3570    0.7833   15.5210 H       1  LIG1        0.0408
     55 H          -0.7055   -0.0979   14.2662 H       1  LIG1        0.0408
     56 H           0.3177    1.0879   14.1209 H       1  LIG1        0.0408
     57 H          -2.2789   -1.0770   10.4883 H       1  LIG1        0.0299
     58 H          -4.1925   -1.5775    8.3748 H       1  LIG1        0.0232
     59 H          -3.6601   -2.6436    9.4315 H       1  LIG1        0.0232
     60 H          -4.4901   -1.5557    9.9203 H       1  LIG1        0.0232
     61 H          -1.6685   -1.5883    7.7275 H       1  LIG1        0.0232
     62 H          -1.1585   -2.3499    8.9692 H       1  LIG1        0.0232
     63 H          -0.5985   -0.9682    8.7446 H       1  LIG1        0.0232
     64 H           1.4233    2.7524   11.3205 H       2  LIG2        0.2102
     65 H           4.0422    4.3625    9.0749 H       2  LIG2        0.0331
     66 H           1.9665    1.2946    8.6389 H       2  LIG2        0.0299
     67 H           2.4515    4.5909    7.2916 H       2  LIG2        0.0269
     68 H           1.4410    3.7641    8.1370 H       2  LIG2        0.0269
     69 H           2.5437    2.3063    6.6575 H       2  LIG2        0.0268
     70 H           3.9109    2.6762    7.1991 H       2  LIG2        0.0268
     71 H           3.4476    1.2293   10.5015 H       2  LIG2        0.0296
     72 H           4.4215    2.0888    9.6825 H       2  LIG2        0.0296
     73 H           3.4082   -0.5766    8.5861 H       2  LIG2        0.0232
     74 H           4.5212    0.3699    7.8200 H       2  LIG2        0.0232
     75 H           3.1671   -0.0979    7.1463 H       2  LIG2        0.0232
     76 H           3.1075    4.4930   12.0470 H       2  LIG2        0.0544
     77 H           4.5270    3.9382   11.4658 H       2  LIG2        0.0544
     78 H           5.6245    3.7641   14.3454 H       2  LIG2        0.0408
     79 H           4.8578    4.2319   15.6664 H       2  LIG2        0.0408
     80 H           4.6638    5.0696   14.3190 H       2  LIG2        0.0408
     81 H           2.2249    4.7215   14.2529 H       2  LIG2        0.0408
     82 H           1.6414    3.2528   14.4907 H       2  LIG2        0.0408
     83 H           2.3718    4.0361   15.6267 H       2  LIG2        0.0408
     84 H           2.9477    5.9182   10.5675 H       2  LIG2        0.0299
     85 H           4.2026    6.7667    8.7710 H       2  LIG2        0.0232
     86 H           3.0933    7.6915    9.1013 H       2  LIG2        0.0232
     87 H           2.9994    6.7341    7.8464 H       2  LIG2        0.0232
     88 H           0.6922    5.9617    8.8239 H       2  LIG2        0.0232
     89 H           0.9122    6.8973   10.0259 H       2  LIG2        0.0232
     90 H           0.7082    5.4504   10.2769 H       2  LIG2        0.0232
@<TRIPOS>BOND
     1    42     9    1
     2    69    27    1
     3    75    30    1
     4    46    12    1
     5    70    27    1
     6    67    26    1
     7    40     8    1
     8    27    26    1
     9    27    28    1
    10    41     8    1
    11     9    43    1
    12     9     8    1
    13     9    10    1
    14    61    18    1
    15     8     7    1
    16    74    30    1
    17    87    35    1
    18    26    68    1
    19    26    25    1
    20    30    28    1
    21    30    73    1
    22    39    10    1
    23    12    10    1
    24    12    48    1
    25    12    47    1
    26    10    11    1
    27    58    17    1
    28    28    66    1
    29    28    29    1
    30    18    63    1
    31    18    62    1
    32    18    16    1
    33    85    35    1
    34    35    86    1
    35    35    34    1
    36    88    36    1
    37    65    25    1
    38    25    34    1
    39    25    24    1
    40     7    16    1
    41     7    38    1
    42     7     6    1
    43    17    59    1
    44    17    16    1
    45    17    60    1
    46    16    57    1
    47    72    29    1
    48    34    36    1
    49    34    84    1
    50    36    89    1
    51    36    90    1
    52    29    24    1
    53    29    71    1
    54    11    45    1
    55    11     6    1
    56    11    44    1
    57     2    37    1
    58     2     6    1
    59     6    13    1
    60    24    20    1
    61    24    31    1
    62    20    64    1
    63    77    31    1
    64    31    76    1
    65    31    19    1
    66    13    50    1
    67    13    49    1
    68    13     1    1
    69     4     1    2
    70    21    19    2
    71     1     3    2
    72     1     5    1
    73    22    19    2
    74    19    23    1
    75    56    15    1
    76    81    33    1
    77    55    15    1
    78     5    15    1
    79     5    14    1
    80    80    32    1
    81    78    32    1
    82    23    32    1
    83    23    33    1
    84    51    14    1
    85    82    33    1
    86    15    54    1
    87    52    14    1
    88    32    79    1
    89    33    83    1
    90    14    53    1
