@<TRIPOS>MOLECULE
2003837.cif
 26 26 0 0 0
SMALL
GASTEIGER

@<TRIPOS>ATOM
      1 C           2.1898    3.0505    0.2789 C.ar    1  LIG1        0.0882
      2 C           1.4272    1.9294   -0.1856 C.ar    1  LIG1        0.2327
      3 C           1.8917    1.2847   -1.3734 C.ar    1  LIG1        0.1643
      4 C           2.9874    1.7487   -2.0545 C.ar    1  LIG1       -0.0163
      5 C           3.7109    2.8651   -1.5890 C.ar    1  LIG1       -0.0573
      6 C           3.3343    3.4898   -0.4474 C.ar    1  LIG1       -0.0450
      7 C           1.8170    3.6857    1.4837 C.2     1  LIG1        0.1756
      8 C           0.3847    3.9786    3.4640 C.3     1  LIG1        0.1475
      9 C           0.1185    2.9107    4.4822 C.3     1  LIG1       -0.0029
     10 C          -0.8158    4.8705    3.2282 C.3     1  LIG1       -0.0029
     11 N           0.7863    3.3434    2.2000 N.2     1  LIG1       -0.2447
     12 O           0.3743    1.4929    0.4264 O.3     1  LIG1       -0.2832
     13 O           1.2222    0.1759   -1.8238 O.3     1  LIG1       -0.5032
     14 H           0.3281    2.6216    1.7686 H       1  LIG1        0.4452
     15 H           0.6557   -0.0732   -1.2520 H       1  LIG1        0.2923
     16 H           3.3026    1.3046   -2.8260 H       1  LIG1        0.0655
     17 H           4.4844    3.1541   -2.0796 H       1  LIG1        0.0619
     18 H           3.9092    4.1906   -0.0642 H       1  LIG1        0.0627
     19 H           2.4188    4.4074    1.8669 H       1  LIG1        0.1378
     20 H           1.1938    4.5672    3.7750 H       1  LIG1        0.1056
     21 H          -0.0924    3.2692    5.3078 H       1  LIG1        0.0293
     22 H          -0.5769    2.2337    4.1612 H       1  LIG1        0.0293
     23 H           0.8526    2.2784    4.7280 H       1  LIG1        0.0293
     24 H          -1.5558    4.3770    2.8179 H       1  LIG1        0.0293
     25 H          -0.6118    5.6075    2.4889 H       1  LIG1        0.0293
     26 H          -1.0559    5.2984    4.0258 H       1  LIG1        0.0293
@<TRIPOS>BOND
     1    16     4    1
     2    17     5    1
     3     4     5   ar
     4     4     3   ar
     5    13     3    1
     6    13    15    1
     7     5     6   ar
     8     3     2   ar
     9     6    18    1
    10     6     1   ar
    11     2     1   ar
    12     2    12    1
    13     1     7    1
    14     7    19    1
    15     7    11    2
    16    14    11    1
    17    11     8    1
    18    25    10    1
    19    24    10    1
    20    10     8    1
    21    10    26    1
    22     8    20    1
    23     8     9    1
    24    22     9    1
    25     9    23    1
    26     9    21    1
