@<TRIPOS>MOLECULE
?
 117 117 0 0 0
SMALL
GASTEIGER

@<TRIPOS>ATOM
      1 C           8.4046    7.9558    0.6549 C.3     1  LIG1        0.2465
      2 H           8.5627    8.8960    0.4201 H       1  LIG1        0.1098
      3 O           8.3138    7.1893   -0.5536 O.3     1  LIG1       -0.4275
      4 C           7.0334    7.8364    1.2707 C.3     1  LIG1        0.2053
      5 H           6.3517    7.9354    0.5743 H       1  LIG1        0.0837
      6 O           6.8468    8.8585    2.2767 O.3     1  LIG1       -0.4476
      7 C           6.7859    6.5410    2.0453 C.3     1  LIG1        0.1851
      8 H           5.9888    6.6400    2.6070 H       1  LIG1        0.0813
      9 O           6.5681    5.4963    1.0762 O.3     1  LIG1       -0.4500
     10 C           7.9885    6.1975    2.9178 C.3     1  LIG1        0.1730
     11 H           7.8680    5.3300    3.3540 H       1  LIG1        0.0801
     12 O           8.1402    7.2632    3.9088 O.3     1  LIG1       -0.4514
     13 C           9.2936    6.2528    2.1823 C.3     1  LIG1        0.1371
     14 H           9.9999    6.2150    2.8625 H       1  LIG1        0.0670
     15 O           9.4595    7.5124    1.4836 O.3     1  LIG1       -0.3281
     16 C           9.5567    5.0884    1.2109 C.3     1  LIG1        0.1226
     17 H           9.0370    5.2020    0.3994 H       1  LIG1        0.0725
     18 H          10.4963    5.0506    0.9737 H       1  LIG1        0.0725
     19 O           9.1627    3.8775    1.8911 O.3     1  LIG1       -0.4584
     20 C           9.2910    7.3794   -1.4790 C.2     1  LIG1        0.3417
     21 O          10.2138    8.1377   -1.3190 O.2     1  LIG1       -0.2449
     22 C           9.0824    6.5294   -2.6807 C.ar    1  LIG1        0.0662
     23 C           9.9351    6.7099   -3.7638 C.ar    1  LIG1       -0.0023
     24 H          10.6013    7.3590   -3.7315 H       1  LIG1        0.0663
     25 C           9.7861    5.9239   -4.8848 C.ar    1  LIG1        0.1628
     26 O          10.5805    6.0074   -6.0002 O.3     1  LIG1       -0.5032
     27 H          11.0484    6.6837   -5.9530 H       1  LIG1        0.2923
     28 C           8.7791    4.9720   -4.9481 C.ar    1  LIG1        0.2006
     29 O           8.6184    4.1648   -6.0393 O.3     1  LIG1       -0.5009
     30 H           9.3027    4.1802   -6.4905 H       1  LIG1        0.2924
     31 C           7.8862    4.8410   -3.8904 C.ar    1  LIG1        0.1628
     32 O           6.8221    3.9689   -3.9560 O.3     1  LIG1       -0.5032
     33 H           6.6459    3.8076   -4.7410 H       1  LIG1        0.2923
     34 C           8.0378    5.5979   -2.7474 C.ar    1  LIG1       -0.0023
     35 H           7.4559    5.4901   -2.0304 H       1  LIG1        0.0663
     36 C           6.0679    9.9352    1.9809 C.2     1  LIG1        0.3403
     37 O           5.6635   10.1218    0.8529 O.2     1  LIG1       -0.2449
     38 C           5.7646   10.7532    3.1583 C.ar    1  LIG1        0.0701
     39 C           4.6254   11.5683    3.0260 C.ar    1  LIG1       -0.0020
     40 H           4.1511   11.5800    2.2260 H       1  LIG1        0.0663
     41 C           4.2133   12.3514    4.0814 C.ar    1  LIG1        0.1628
     42 O           3.1039   13.1609    4.0676 O.3     1  LIG1       -0.5032
     43 H           2.7410   13.1170    3.3391 H       1  LIG1        0.2923
     44 C           4.9144   12.3776    5.2532 C.ar    1  LIG1        0.2013
     45 O           4.5490   13.1432    6.3075 O.3     1  LIG1       -0.5009
     46 H           3.8038   13.4401    6.1820 H       1  LIG1        0.2924
     47 C           6.0407   11.5887    5.3717 C.ar    1  LIG1        0.1744
     48 O           6.6796   11.6923    6.5987 O.3     1  LIG1       -0.4452
     49 C           6.4994   10.7387    4.3565 C.ar    1  LIG1        0.0253
     50 C           5.9305    4.3898    1.5711 C.2     1  LIG1        0.3405
     51 O           5.7426    4.2250    2.7474 O.2     1  LIG1       -0.2449
     52 C           5.5028    3.4903    0.4765 C.ar    1  LIG1        0.0740
     53 C           4.7537    4.0084   -0.5513 C.ar    1  LIG1       -0.0017
     54 H           4.6306    4.9283   -0.6192 H       1  LIG1        0.0664
     55 C           4.1913    3.1759   -1.4721 C.ar    1  LIG1        0.1628
     56 O           3.3683    3.7005   -2.4321 O.3     1  LIG1       -0.5032
     57 H           2.9614    3.0973   -2.8038 H       1  LIG1        0.2923
     58 C           4.4621    1.8136   -1.4192 C.ar    1  LIG1        0.2012
     59 O           3.8712    0.9440   -2.3342 O.3     1  LIG1       -0.5009
     60 H           4.1433    1.1062   -3.0835 H       1  LIG1        0.2924
     61 C           5.2203    1.2925   -0.4052 C.ar    1  LIG1        0.1708
     62 O           5.4652   -0.0527   -0.3660 O.3     1  LIG1       -0.5028
     63 H           5.0622   -0.4163   -0.9922 H       1  LIG1        0.2923
     64 C           5.7737    2.1076    0.5836 C.ar    1  LIG1        0.0458
     65 C           7.1798    7.4580    4.8238 C.2     1  LIG1        0.3365
     66 O           6.2649    6.7052    5.0598 O.2     1  LIG1       -0.2453
     67 C           7.4339    8.7505    5.5386 C.2     1  LIG1        0.0531
     68 C           7.3807    8.7708    6.8657 C.2     1  LIG1       -0.0016
     69 H           7.0554    8.0256    7.3169 H       1  LIG1        0.0660
     70 C           7.8214    9.9382    7.6438 C.2     1  LIG1        0.2331
     71 O           7.9613    9.9513    8.8454 O.2     1  LIG1       -0.2855
     72 C           8.0261   11.2073    6.8001 C.3     1  LIG1        0.3326
     73 O           8.7350   12.2009    7.4493 O.3     1  LIG1       -0.3454
     74 H           8.6249   12.1360    8.2550 H       1  LIG1        0.2144
     75 C           8.6923   10.8842    5.4857 C.3     1  LIG1        0.2853
     76 O           9.8976   10.2316    5.8275 O.3     1  LIG1       -0.3567
     77 H          10.1671    9.7926    5.1841 H       1  LIG1        0.2131
     78 O           8.9385   12.0245    4.7053 O.3     1  LIG1       -0.1881
     79 H           7.8382   13.0296    4.8158 H       2  UNK2        0.0000
     80 C           7.7630    9.9673    4.6995 C.3     1  LIG1        0.0840
     81 H           8.2076    9.6849    3.8731 H       1  LIG1        0.0457
     82 C           8.5847    2.9168    1.1038 C.2     1  LIG1        0.3401
     83 O           8.5964    2.9844   -0.0909 O.2     1  LIG1       -0.2449
     84 C           7.9328    1.8892    1.9475 C.ar    1  LIG1        0.0740
     85 C           8.6288    1.3420    2.9880 C.ar    1  LIG1       -0.0017
     86 H           9.5036    1.6098    3.1572 H       1  LIG1        0.0664
     87 C           8.0274    0.3726    3.7971 C.ar    1  LIG1        0.1628
     88 O           8.8309   -0.1776    4.7801 O.3     1  LIG1       -0.5032
     89 H           8.3981   -0.7248    5.2152 H       1  LIG1        0.2923
     90 C           6.7159    0.0204    3.5796 C.ar    1  LIG1        0.2012
     91 O           5.9797   -0.8570    4.3565 O.3     1  LIG1       -0.5009
     92 H           6.4230   -1.0654    5.0149 H       1  LIG1        0.2924
     93 O           4.6889    0.3254    2.3619 O.3     1  LIG1       -0.5028
     94 H           4.4816   -0.3464    2.7981 H       1  LIG1        0.2923
     95 C           6.0070    0.6084    2.5437 C.ar    1  LIG1        0.1708
     96 C           6.5928    1.5254    1.6747 C.ar    1  LIG1        0.0458
     97 O          11.0704    8.6003    3.9238 O.3     3  HOH3       -0.4105
     98 H          10.8099    8.6952    3.1756 H       0  HOH0        0.2052
     99 H          11.8428    9.2191    3.7891 H       0  HOH0        0.2052
    100 O           5.7905    2.9154   -6.2292 O.3     4  HOH4       -0.4105
    101 H           6.6938    2.8877   -6.7069 H       0  HOH0        0.2052
    102 H           5.5909    2.1833   -5.9633 H       0  HOH0        0.2052
    103 O           1.1612   12.7909    2.3607 O.3     5  HOH5       -0.4105
    104 H           1.2804   12.5551    1.4399 H       0  HOH0        0.2052
    105 H           1.7664   13.7108    1.7794 H       0  HOH0        0.2052
    106 O           9.0007   12.6163   10.0862 O.3     6  HOH6       -0.4105
    107 H           9.5904   11.7080   10.5478 H       0  HOH0        0.2052
    108 H          10.1088   13.3819   10.0908 H       0  HOH0        0.2052
    109 O           6.0445   13.6322    8.7223 O.3     7  HOH7       -0.4105
    110 H           6.9984   14.1009    8.9663 H       0  HOH0        0.2052
    111 H           5.4432   13.3382    7.8763 H       0  HOH0        0.2052
    112 O           7.5401   -1.9783    6.2258 O.3     8  HOH8       -0.4105
    113 H           7.2576   -1.8019    7.1546 H       0  HOH0        0.2052
    114 H           6.9984   -2.8906    6.3593 H       0  HOH0        0.2052
    115 O           4.6241    0.7918   -4.9171 O.3     9  HOH9       -0.4105
    116 H           5.1348    0.1747   -5.7550 H       0  HOH0        0.2052
    117 H           4.3572   -0.3115   -4.6777 H       0  HOH0        0.2052
@<TRIPOS>BOND
     1   101   100    1
     2    30    29    1
     3   100   102    1
     4    29    28    1
     5    26    27    1
     6    26    25    1
     7   116   115    1
     8    28    25   ar
     9    28    31   ar
    10   115   117    1
    11    25    23   ar
    12    33    32    1
    13    32    31    1
    14    31    34   ar
    15    23    24    1
    16    23    22   ar
    17    60    59    1
    18    57    56    1
    19    34    22   ar
    20    34    35    1
    21    22    20    1
    22    56    55    1
    23    59    58    1
    24    20    21    2
    25    20     3    1
    26    55    58   ar
    27    55    53   ar
    28    58    61   ar
    29    63    62    1
    30    54    53    1
    31     3     1    1
    32    53    52   ar
    33    61    62    1
    34    61    64   ar
    35    83    82    2
    36    17    16    1
    37     2     1    1
    38    52    64   ar
    39    52    50    1
    40     5     4    1
    41    64    96    1
    42     1     4    1
    43     1    15    1
    44    37    36    2
    45    18    16    1
    46     9    50    1
    47     9     7    1
    48    82    19    1
    49    82    84    1
    50    16    19    1
    51    16    13    1
    52     4     7    1
    53     4     6    1
    54   104   103    1
    55    15    13    1
    56    50    51    2
    57    96    84   ar
    58    96    95   ar
    59   105   103    1
    60    84    85   ar
    61    36     6    1
    62    36    38    1
    63     7     8    1
    64     7    10    1
    65    13    14    1
    66    13    10    1
    67    40    39    1
    68    93    95    1
    69    93    94    1
    70    95    90   ar
    71    10    11    1
    72    10    12    1
    73    85    86    1
    74    85    87   ar
    75    39    38   ar
    76    39    41   ar
    77    38    49   ar
    78    98    97    1
    79    43    42    1
    80    90    87   ar
    81    90    91    1
    82    99    97    1
    83    87    88    1
    84    81    80    1
    85    12    65    1
    86    42    41    1
    87    41    44   ar
    88    49    80    1
    89    49    47   ar
    90    91    92    1
    91    80    75    1
    92    80    67    1
    93    78    75    1
    94    88    89    1
    95    65    66    2
    96    65    67    1
    97    77    76    1
    98    44    47   ar
    99    44    45    1
   100    47    48    1
   101    75    76    1
   102    75    72    1
   103    67    68    2
   104    46    45    1
   105   112   114    1
   106   112   113    1
   107    48    72    1
   108    72    73    1
   109    72    70    1
   110    68    69    1
   111    68    70    1
   112    73    74    1
   113    70    71    2
   114   111   109    1
   115   109   110    1
   116   106   108    1
   117   106   107    1
