@<TRIPOS>MOLECULE
N-n-octyl-N,N-dimethylammonio acetic acid bromide
 50 48 0 0 0
SMALL
GASTEIGER

@<TRIPOS>ATOM
      1 BR          5.6214    2.0458    2.1528 Br      1  LIG1        0.0000
      2 O           4.1813    6.5167    2.8107 O.co2   2  LIG2       -0.2403
      3 O           3.9403    8.2805    1.4600 O.co2   2  LIG2       -0.2403
      4 N           1.5172    5.5868    2.0152 N.4     2  LIG2        0.2470
      5 C           1.1767    5.9829    3.4970 C.3     2  LIG2       -0.0300
      6 C           0.1882    5.1875    4.1724 C.3     2  LIG2       -0.0124
      7 C          -0.1019    5.6866    5.5559 C.3     2  LIG2       -0.0483
      8 C          -1.3119    5.1414    6.1967 C.3     2  LIG2       -0.0529
      9 C          -1.6222    5.6281    7.5548 C.3     2  LIG2       -0.0531
     10 C          -2.9175    5.1911    8.1555 C.3     2  LIG2       -0.0531
     11 C          -3.2474    5.6528    9.4899 C.3     2  LIG2       -0.0531
     12 C          -4.5346    5.2338   10.0797 C.3     2  LIG2       -0.0531
     13 C          -4.8903    5.6581   11.4122 C.3     2  LIG2       -0.0533
     14 C          -6.1679    5.2245   11.9838 C.3     2  LIG2       -0.0559
     15 C          -6.5378    5.5904   13.1962 C.3     2  LIG2       -0.0653
     16 C           3.5516    7.1450    1.9952 C.2     2  LIG2        0.3998
     17 C           2.2313    6.7411    1.4108 C.3     2  LIG2        0.0728
     18 C           0.2481    5.4305    1.2506 C.3     2  LIG2       -0.0410
     19 C           2.3060    4.3378    1.8932 C.3     2  LIG2       -0.0410
     20 H           0.8535    6.8761    3.4898 H       2  LIG2        0.0815
     21 H           1.9782    5.9398    4.0049 H       2  LIG2        0.0815
     22 H           0.5118    4.2959    4.2325 H       2  LIG2        0.0317
     23 H          -0.6173    5.1991    3.6682 H       2  LIG2        0.0317
     24 H          -0.2079    6.6289    5.5013 H       2  LIG2        0.0267
     25 H           0.6436    5.4828    6.1093 H       2  LIG2        0.0267
     26 H          -1.2068    4.1983    6.2513 H       2  LIG2        0.0265
     27 H          -2.0587    5.3422    5.6415 H       2  LIG2        0.0265
     28 H          -1.6375    6.5770    7.5129 H       2  LIG2        0.0265
     29 H          -0.9176    5.3493    8.1300 H       2  LIG2        0.0265
     30 H          -2.8950    4.2406    8.2028 H       2  LIG2        0.0265
     31 H          -3.6179    5.4589    7.5711 H       2  LIG2        0.0265
     32 H          -3.2641    6.6047    9.4444 H       2  LIG2        0.0265
     33 H          -2.5569    5.3767   10.0760 H       2  LIG2        0.0265
     34 H          -4.5249    4.2875   10.0961 H       2  LIG2        0.0265
     35 H          -5.2245    5.5374    9.5008 H       2  LIG2        0.0265
     36 H          -4.9071    6.6112   11.3959 H       2  LIG2        0.0265
     37 H          -4.1950    5.3680   11.9911 H       2  LIG2        0.0265
     38 H          -6.1362    4.2766   11.9984 H       2  LIG2        0.0263
     39 H          -6.8507    5.5125   11.3904 H       2  LIG2        0.0263
     40 H          -7.3810    5.2253   13.4365 H       2  LIG2        0.0230
     41 H          -5.8790    5.3058   13.8152 H       2  LIG2        0.0230
     42 H          -6.5924    6.5424   13.2090 H       2  LIG2        0.0230
     43 H           1.6544    7.4935    1.4727 H       2  LIG2        0.0934
     44 H           2.3812    6.5314    0.4970 H       2  LIG2        0.0934
     45 H          -0.2664    6.2245    1.3326 H       2  LIG2        0.0778
     46 H           0.4462    5.2747    0.3350 H       2  LIG2        0.0778
     47 H          -0.2451    4.6961    1.5965 H       2  LIG2        0.0778
     48 H           3.1177    4.4265    2.3793 H       2  LIG2        0.0778
     49 H           1.8091    3.6056    2.2391 H       2  LIG2        0.0778
     50 H           2.5003    4.1834    0.9776 H       2  LIG2        0.0778
@<TRIPOS>BOND
     1    46    18    1
     2    44    17    1
     3    50    19    1
     4    18    45    1
     5    18    47    1
     6    18     4    1
     7    17    43    1
     8    17    16    1
     9    17     4    1
    10     3    16   ar
    11    19     4    1
    12    19    49    1
    13    19    48    1
    14    16     2   ar
    15     4     5    1
    16    20     5    1
    17     5    21    1
    18     5     6    1
    19    23     6    1
    20     6    22    1
    21     6     7    1
    22    24     7    1
    23     7    25    1
    24     7     8    1
    25    27     8    1
    26     8    26    1
    27     8     9    1
    28    28     9    1
    29     9    29    1
    30     9    10    1
    31    31    10    1
    32    10    30    1
    33    10    11    1
    34    32    11    1
    35    11    33    1
    36    11    12    1
    37    35    12    1
    38    12    34    1
    39    12    13    1
    40    39    14    1
    41    36    13    1
    42    13    14    1
    43    13    37    1
    44    14    38    1
    45    14    15    1
    46    15    42    1
    47    15    40    1
    48    15    41    1
