@<TRIPOS>MOLECULE
2003743.cif
 31 32 0 0 0
SMALL
GASTEIGER

@<TRIPOS>ATOM
      1 BR          5.9086    3.5618    4.8615 Br      1  LIG1       -0.0213
      2 BR          8.0251    1.4696    3.8461 Br      1  LIG1       -0.0213
      3 S           6.5499    3.1920    1.8682 S.O2    1  LIG1        0.0428
      4 S           8.6471    4.4610    3.7651 S.O2    1  LIG1        0.0428
      5 O           7.6622    3.0600    0.9850 O.2     1  LIG1       -0.1655
      6 O           5.5461    2.1717    1.9181 O.2     1  LIG1       -0.1655
      7 O           8.0512    5.7198    3.5170 O.2     1  LIG1       -0.1655
      8 O           9.7155    4.0066    2.9494 O.2     1  LIG1       -0.1655
      9 C           7.2842    3.2176    3.5894 C.3     1  LIG1        0.3186
     10 C           5.7768    4.7527    1.6046 C.ar    1  LIG1        0.0926
     11 C           6.5038    5.7495    0.9739 C.ar    1  LIG1       -0.0367
     12 C           5.8650    6.9325    0.6901 C.ar    1  LIG1       -0.0600
     13 C           4.5367    7.0973    1.0295 C.ar    1  LIG1       -0.0616
     14 C           3.8312    6.1015    1.6342 C.ar    1  LIG1       -0.0600
     15 C           4.4396    4.9000    1.9292 C.ar    1  LIG1       -0.0367
     16 C           9.1594    4.3935    5.4499 C.ar    1  LIG1        0.0926
     17 C          10.1776    3.5389    5.8117 C.ar    1  LIG1       -0.0367
     18 C          10.6244    3.5727    7.1139 C.ar    1  LIG1       -0.0600
     19 C          10.0646    4.4446    8.0172 C.ar    1  LIG1       -0.0616
     20 C           9.0487    5.2838    7.6333 C.ar    1  LIG1       -0.0600
     21 C           8.5818    5.2685    6.3366 C.ar    1  LIG1       -0.0367
     22 H           7.4410    5.6318    0.7346 H       1  LIG1        0.0636
     23 H           6.3267    7.6356    0.2226 H       1  LIG1        0.0618
     24 H           4.0711    7.9447    0.7995 H       1  LIG1        0.0618
     25 H           2.9366    6.2816    1.8865 H       1  LIG1        0.0618
     26 H           3.9377    4.2031    2.3837 H       1  LIG1        0.0636
     27 H          10.5791    2.9331    5.1457 H       1  LIG1        0.0636
     28 H          11.3414    2.9853    7.4199 H       1  LIG1        0.0618
     29 H          10.3951    4.4610    8.9355 H       1  LIG1        0.0618
     30 H           8.6301    5.8508    8.3103 H       1  LIG1        0.0618
     31 H           7.8836    5.8927    6.0064 H       1  LIG1        0.0636
@<TRIPOS>BOND
     1    23    12    1
     2    12    11   ar
     3    12    13   ar
     4    22    11    1
     5    24    13    1
     6    11    10   ar
     7     5     3    2
     8    13    14   ar
     9    10     3    1
    10    10    15   ar
    11    14    25    1
    12    14    15   ar
    13     3     6    2
    14     3     9    1
    15    15    26    1
    16     8     4    2
    17     7     4    2
    18     9     4    1
    19     9     2    1
    20     9     1    1
    21     4    16    1
    22    27    17    1
    23    16    17   ar
    24    16    21   ar
    25    17    18   ar
    26    31    21    1
    27    21    20   ar
    28    18    28    1
    29    18    19   ar
    30    20    19   ar
    31    20    30    1
    32    19    29    1
