@<TRIPOS>MOLECULE
[3S,4S,5R-(1\b,3\b,6\a,7\a,12a\b)]-hexahydro-1-hydroxy-6,6- dimethyl-3,13a:4,8-diepoxy-3H,6H-dioxolano[4,5-f] pyrimido[6,1-c][1,4]oxazonine-10,12(11H,13H)dione
 39 43 0 0 0
SMALL
GASTEIGER

@<TRIPOS>ATOM
      1 O           0.7089    3.3801    3.7073 O.2     1  LIG1       -0.2521
      2 O           3.5054    5.9947    6.0667 O.2     1  LIG1       -0.2752
      3 O           5.5105    3.9721    1.4602 O.3     1  LIG1       -0.3155
      4 O           5.7661    4.3987    3.6903 O.3     1  LIG1       -0.3635
      5 O           0.4393    4.0880   -0.5015 O.3     1  LIG1       -0.3390
      6 O           2.1192    3.9721   -1.9741 O.3     1  LIG1       -0.3405
      7 O           3.0544    2.9847    0.7216 O.3     1  LIG1       -0.3449
      8 O           3.9934    5.6393    1.3733 O.3     1  LIG1       -0.3189
      9 N           2.4059    4.3655    2.5379 N.am    1  LIG1       -0.2231
     10 N           2.2730    4.5389    4.8586 N.am    1  LIG1       -0.2398
     11 C           1.7308    4.0549    3.6723 C.2     1  LIG1        0.3127
     12 C           3.1943    5.5448    4.9805 C.2     1  LIG1        0.2249
     13 C           3.7172    6.0707    3.6761 C.3     1  LIG1        0.0756
     14 C           3.7332    5.0121    2.5956 C.3     1  LIG1        0.2036
     15 C           4.8846    3.9731    2.7306 C.3     1  LIG1        0.2064
     16 C           0.6991    4.1075   -1.8909 C.3     1  LIG1        0.1657
     17 C           0.2570    5.4007   -2.5190 C.3     1  LIG1       -0.0108
     18 C           0.0822    2.8727   -2.5124 C.3     1  LIG1       -0.0108
     19 C           1.9928    3.7189    1.2789 C.3     1  LIG1        0.1604
     20 C           1.5421    4.6850    0.1747 C.3     1  LIG1        0.1335
     21 C           2.6748    4.6674   -0.8605 C.3     1  LIG1        0.1230
     22 C           3.7535    3.8348   -0.1984 C.3     1  LIG1        0.1405
     23 C           4.7383    4.7073    0.5667 C.3     1  LIG1        0.1935
     24 H           1.9742    4.1328    5.6634 H       1  LIG1        0.1591
     25 H           4.6497    2.9243    3.1708 H       1  LIG1        0.0957
     26 H           6.7235    3.9332    3.4853 H       1  LIG1        0.2126
     27 H           1.2787    3.1220    1.4668 H       1  LIG1        0.0838
     28 H           1.3495    5.5575    0.4997 H       1  LIG1        0.0667
     29 H           2.9755    5.5409   -1.0881 H       1  LIG1        0.0652
     30 H           4.2105    3.3129   -0.8463 H       1  LIG1        0.0675
     31 H           5.2990    5.1767   -0.0406 H       1  LIG1        0.0939
     32 H           3.1644    6.7893    3.3918 H       1  LIG1        0.0405
     33 H           4.6034    6.3872    3.8074 H       1  LIG1        0.0405
     34 H           0.6101    6.1310   -2.0232 H       1  LIG1        0.0281
     35 H           0.5741    5.4426   -3.4135 H       1  LIG1        0.0281
     36 H          -0.6917    5.4455   -2.5162 H       1  LIG1        0.0281
     37 H           0.4138    2.0985   -2.0751 H       1  LIG1        0.0281
     38 H           0.3070    2.8377   -3.4352 H       1  LIG1        0.0281
     39 H          -0.8629    2.9097   -2.4189 H       1  LIG1        0.0281
@<TRIPOS>BOND
     1    38    18    1
     2    35    17    1
     3    17    36    1
     4    17    34    1
     5    17    16    1
     6    18    39    1
     7    18    37    1
     8    18    16    1
     9     6    16    1
    10     6    21    1
    11    16     5    1
    12    29    21    1
    13    21    22    1
    14    21    20    1
    15    30    22    1
    16     5    20    1
    17    22    23    1
    18    22     7    1
    19    31    23    1
    20    20    28    1
    21    20    19    1
    22    23     8    1
    23    23     3    1
    24     7    19    1
    25    19    27    1
    26    19     9    1
    27     8    14    1
    28     3    15    1
    29     9    14    1
    30     9    11   am
    31    14    15    1
    32    14    13    1
    33    15    25    1
    34    15     4    1
    35    32    13    1
    36    26     4    1
    37    11     1    2
    38    11    10   am
    39    13    33    1
    40    13    12    1
    41    10    12   am
    42    10    24    1
    43    12     2    2
