@<TRIPOS>MOLECULE
2-(4-nitrophenyl)-6[4-(6-acrylyloxy-hexyloxy)-benzoyloxy]benzoxazole
 65 68 0 0 0
SMALL
GASTEIGER

@<TRIPOS>ATOM
      1 O          14.8349   11.5812   -1.2508 O.2     1  LIG1       -0.2456
      2 O          13.6242   11.4619    0.6103 O.3     1  LIG1       -0.4616
      3 O           9.9173    4.0866    2.9098 O.3     1  LIG1       -0.4920
      4 O           6.0493    1.1114    7.0387 O.2     1  LIG1       -0.2445
      5 O           6.3793   -0.3692    5.3770 O.3     1  LIG1       -0.4222
      6 O           3.5180   -3.1107    8.2812 O.2     1  LIG1       -0.4352
      7 O          -0.8683   -6.7371   12.3222 O.2     1  LIG1       -0.1261
      8 O          -0.4897   -8.4782   11.1346 O.2     1  LIG1       -0.1261
      9 N           3.0843   -4.5724    6.6250 N.ar    1  LIG1       -0.2089
     10 N          -0.3370   -7.2925   11.3807 N.pl3   1  LIG1        0.0564
     11 C          15.2410   14.3430   -0.6790 C.2     1  LIG1       -0.0919
     12 C          14.4646   13.5472    0.0316 C.2     1  LIG1        0.0154
     13 C          14.3423   12.1172   -0.2996 C.2     1  LIG1        0.3314
     14 C          13.4756   10.0288    0.4206 C.3     1  LIG1        0.0928
     15 C          12.6310    9.5136    1.5545 C.3     1  LIG1       -0.0185
     16 C          12.3559    8.0242    1.3937 C.3     1  LIG1       -0.0499
     17 C          11.4642    7.4635    2.4892 C.3     1  LIG1       -0.0499
     18 C          11.1165    6.0045    2.2335 C.3     1  LIG1       -0.0186
     19 C          10.1631    5.4553    3.2685 C.3     1  LIG1        0.0896
     20 C           9.0939    3.3522    3.7125 C.ar    1  LIG1        0.1205
     21 C           8.4653    3.8320    4.8382 C.ar    1  LIG1       -0.0192
     22 C           7.6491    2.9840    5.5735 C.ar    1  LIG1       -0.0443
     23 C           7.4652    1.6715    5.1955 C.ar    1  LIG1        0.0596
     24 C           8.0968    1.2046    4.0520 C.ar    1  LIG1       -0.0443
     25 C           8.9081    2.0375    3.3166 C.ar    1  LIG1       -0.0192
     26 C           6.5617    0.8188    6.0037 C.2     1  LIG1        0.3444
     27 C           5.4807   -1.3647    5.7549 C.ar    1  LIG1        0.1356
     28 C           4.9716   -1.5392    7.0277 C.ar    1  LIG1        0.0253
     29 C           4.1590   -2.6627    7.1459 C.ar    1  LIG1        0.1592
     30 C           3.8758   -3.5391    6.1302 C.ar    1  LIG1        0.1101
     31 C           4.3730   -3.3099    4.8574 C.ar    1  LIG1       -0.0291
     32 C           5.1809   -2.2017    4.6828 C.ar    1  LIG1       -0.0170
     33 C           2.9147   -4.2768    7.8606 C.ar    1  LIG1        0.2284
     34 C           2.1271   -5.0392    8.8324 C.ar    1  LIG1        0.0371
     35 C           1.6469   -4.4745   10.0021 C.ar    1  LIG1       -0.0473
     36 C           0.8331   -5.2090   10.8446 C.ar    1  LIG1       -0.0308
     37 C           0.5353   -6.5112   10.5038 C.ar    1  LIG1        0.1262
     38 C           1.0184   -7.1093    9.3574 C.ar    1  LIG1       -0.0308
     39 C           1.8222   -6.3665    8.5245 C.ar    1  LIG1       -0.0473
     40 H          15.4172   15.2997   -0.4261 H       1  LIG1        0.0537
     41 H          15.8656   13.9497   -1.3195 H       1  LIG1        0.0537
     42 H          13.9547   13.8673    0.7972 H       1  LIG1        0.0683
     43 H          14.4425    9.6209    0.4398 H       1  LIG1        0.0697
     44 H          13.0654    9.8549   -0.4398 H       1  LIG1        0.0697
     45 H          13.0778    9.6905    2.4603 H       1  LIG1        0.0298
     46 H          11.8217   10.0284    1.5944 H       1  LIG1        0.0298
     47 H          13.2641    7.5102    1.3195 H       1  LIG1        0.0266
     48 H          11.9155    7.8744    0.5223 H       1  LIG1        0.0266
     49 H          11.9325    7.5542    3.3125 H       1  LIG1        0.0266
     50 H          10.6162    8.0693    2.5565 H       1  LIG1        0.0266
     51 H          11.9243    5.4356    2.2267 H       1  LIG1        0.0298
     52 H          10.7059    5.9477    1.3058 H       1  LIG1        0.0298
     53 H          10.6487    5.4508    4.2059 H       1  LIG1        0.0696
     54 H           9.2656    5.9654    3.2300 H       1  LIG1        0.0696
     55 H           8.5618    4.7202    5.0993 H       1  LIG1        0.0654
     56 H           7.2540    3.3322    6.4051 H       1  LIG1        0.0627
     57 H           8.0086    0.3160    3.7523 H       1  LIG1        0.0627
     58 H           9.3318    1.7658    2.5015 H       1  LIG1        0.0654
     59 H           5.1877   -0.9036    7.7795 H       1  LIG1        0.0692
     60 H           4.1171   -3.9603    4.0959 H       1  LIG1        0.0641
     61 H           5.5576   -1.9923    3.8073 H       1  LIG1        0.0655
     62 H           1.8596   -3.5653   10.1849 H       1  LIG1        0.0626
     63 H           0.4791   -4.7967   11.6418 H       1  LIG1        0.0640
     64 H           0.8089   -7.9748    9.1265 H       1  LIG1        0.0640
     65 H           2.1738   -6.7178    7.6971 H       1  LIG1        0.0626
@<TRIPOS>BOND
     1    41    11    1
     2     1    13    2
     3    11    40    1
     4    11    12    2
     5    44    14    1
     6    13    12    1
     7    13     2    1
     8    12    42    1
     9    14    43    1
    10    14     2    1
    11    14    15    1
    12    48    16    1
    13    52    18    1
    14    47    16    1
    15    16    15    1
    16    16    17    1
    17    15    46    1
    18    15    45    1
    19    51    18    1
    20    18    17    1
    21    18    19    1
    22    17    50    1
    23    17    49    1
    24    58    25    1
    25     3    19    1
    26     3    20    1
    27    54    19    1
    28    19    53    1
    29    25    20   ar
    30    25    24   ar
    31    20    21   ar
    32    57    24    1
    33    61    32    1
    34    24    23   ar
    35    60    31    1
    36    32    31   ar
    37    32    27   ar
    38    21    55    1
    39    21    22   ar
    40    31    30   ar
    41    23    22   ar
    42    23    26    1
    43     5    27    1
    44     5    26    1
    45    22    56    1
    46    27    28   ar
    47    26     4    2
    48    30     9   ar
    49    30    29   ar
    50     9    33   ar
    51    28    29   ar
    52    28    59    1
    53    29     6   ar
    54    65    39    1
    55    33     6   ar
    56    33    34    1
    57    39    34   ar
    58    39    38   ar
    59    34    35   ar
    60    64    38    1
    61    38    37   ar
    62    35    62    1
    63    35    36   ar
    64    37    36   ar
    65    37    10    1
    66    36    63    1
    67     8    10    2
    68    10     7    2
