@<TRIPOS>MOLECULE
?
 30 32 0 0 0
SMALL
GASTEIGER

@<TRIPOS>ATOM
      1 S          -5.2310   -2.9708  -12.7929 S.3     1  LIG1        0.2354
      2 O          -3.8804   -3.2285  -12.4114 O.3     1  LIG1       -0.1023
      3 O          -5.7550   -1.6650  -11.9949 O.3     1  LIG1       -0.2670
      4 O          -6.1459   -3.9922  -11.9449 O.3     1  LIG1       -0.2670
      5 C          -6.1314   -2.0215  -10.6330 C.3     1  LIG1        0.1331
      6 C          -6.8070   -3.3852  -10.7982 C.3     1  LIG1        0.1331
      7 C          -7.0016   -0.9417  -10.0652 C.ar    1  LIG1       -0.0147
      8 C          -8.1855   -0.6004  -10.7024 C.ar    1  LIG1       -0.0560
      9 C          -8.9941    0.4003  -10.1957 C.ar    1  LIG1       -0.0614
     10 C          -8.6136    1.0596   -9.0545 C.ar    1  LIG1       -0.0617
     11 C          -7.4547    0.7369   -8.4145 C.ar    1  LIG1       -0.0614
     12 C          -6.6321   -0.2653   -8.9226 C.ar    1  LIG1       -0.0560
     13 C          -6.7001   -4.2726   -9.5945 C.ar    1  LIG1       -0.0147
     14 C          -5.5976   -5.0762   -9.3544 C.ar    1  LIG1       -0.0560
     15 C          -5.5522   -5.8612   -8.2285 C.ar    1  LIG1       -0.0614
     16 C          -6.5572   -5.8519   -7.3219 C.ar    1  LIG1       -0.0617
     17 C          -7.6481   -5.0327   -7.5385 C.ar    1  LIG1       -0.0614
     18 C          -7.7248   -4.2570   -8.6755 C.ar    1  LIG1       -0.0560
     19 H          -5.3501   -2.1068  -10.0929 H       1  LIG1        0.0690
     20 H          -7.7666   -3.2269  -11.0925 H       1  LIG1        0.0690
     21 H          -4.9667   -5.1196   -9.9680 H       1  LIG1        0.0621
     22 H          -9.0853    1.7221   -8.7185 H       1  LIG1        0.0618
     23 H          -6.5700   -6.3763   -6.4972 H       1  LIG1        0.0618
     24 H          -8.4811   -3.6613   -8.8296 H       1  LIG1        0.0621
     25 H          -9.7707    0.6361  -10.6621 H       1  LIG1        0.0618
     26 H          -4.8447   -6.4383   -8.1216 H       1  LIG1        0.0618
     27 H          -8.3533   -5.0731   -6.8999 H       1  LIG1        0.0618
     28 H          -8.4405   -1.0550  -11.4951 H       1  LIG1        0.0621
     29 H          -5.8206   -0.4809   -8.5103 H       1  LIG1        0.0621
     30 H          -7.2322    1.1636   -7.6495 H       1  LIG1        0.0618
@<TRIPOS>BOND
     1     1     2    1
     2     1     3    1
     3     1     4    1
     4     3     5    1
     5     4     6    1
     6    28     8    1
     7    20     6    1
     8     6     5    1
     9     6    13    1
    10     8     9   ar
    11     8     7   ar
    12    25     9    1
    13     5    19    1
    14     5     7    1
    15     9    10   ar
    16     7    12   ar
    17    21    14    1
    18    13    14   ar
    19    13    18   ar
    20    14    15   ar
    21    10    22    1
    22    10    11   ar
    23    12    29    1
    24    12    11   ar
    25    24    18    1
    26    18    17   ar
    27    11    30    1
    28    15    26    1
    29    15    16   ar
    30    17    16   ar
    31    17    27    1
    32    16    23    1
