@<TRIPOS>MOLECULE
?
 26 28 0 0 0
SMALL
GASTEIGER

@<TRIPOS>ATOM
      1 O           2.4769   -1.5783    8.2702 O.3     1  LIG1       -0.4771
      2 O           3.3722   -1.8977   10.2260 O.2     1  LIG1       -0.2451
      3 C          -0.0519    1.9027   10.6002 C.ar    1  LIG1       -0.0576
      4 C          -0.2220    1.1735    9.4423 C.ar    1  LIG1       -0.0607
      5 C           0.6610    0.1487    9.1391 C.ar    1  LIG1       -0.0472
      6 C           1.7095   -0.2010    9.9955 C.ar    1  LIG1        0.0668
      7 C           3.8002   -0.4582   12.7156 C.ar    1  LIG1       -0.0537
      8 C           4.4614   -0.3034   13.9285 C.ar    1  LIG1       -0.0612
      9 C           4.1257    0.7286   14.7920 C.ar    1  LIG1       -0.0615
     10 C           3.1322    1.6158   14.4586 C.ar    1  LIG1       -0.0577
     11 C           1.3251    2.2744   12.7369 C.3     1  LIG1       -0.0012
     12 C           0.9798    1.5816   11.4513 C.ar    1  LIG1       -0.0345
     13 C           1.8629    0.5149   11.2013 C.ar    1  LIG1       -0.0002
     14 C           2.7907    0.4306   12.3663 C.ar    1  LIG1       -0.0133
     15 C           2.4629    1.4621   13.2617 C.ar    1  LIG1       -0.0353
     16 C           2.5921   -1.2947    9.5327 C.2     1  LIG1        0.3374
     17 H           2.8970   -2.3570    8.1390 H       1  LIG1        0.2954
     18 H          -0.6602    2.6412   10.8147 H       1  LIG1        0.0621
     19 H          -0.9629    1.3790    8.8358 H       1  LIG1        0.0618
     20 H           0.5460   -0.3447    8.3003 H       1  LIG1        0.0626
     21 H           4.0448   -1.1895   12.1109 H       1  LIG1        0.0624
     22 H           5.1729   -0.9301   14.1767 H       1  LIG1        0.0618
     23 H           4.5999    0.8249   15.6449 H       1  LIG1        0.0618
     24 H           2.9012    2.3509   15.0633 H       1  LIG1        0.0621
     25 H           0.5676    2.2628   13.3575 H       1  LIG1        0.0362
     26 H           1.6003    3.2007   12.5737 H       1  LIG1        0.0362
@<TRIPOS>BOND
     1    17     1    1
     2     1    16    1
     3    20     5    1
     4    19     4    1
     5     5     4   ar
     6     5     6   ar
     7     4     3   ar
     8    16     6    1
     9    16     2    2
    10     6    13   ar
    11     3    18    1
    12     3    12   ar
    13    13    12   ar
    14    13    14    1
    15    12    11    1
    16    21     7    1
    17    14     7   ar
    18    14    15   ar
    19    26    11    1
    20     7     8   ar
    21    11    15    1
    22    11    25    1
    23    15    10   ar
    24     8    22    1
    25     8     9   ar
    26    10     9   ar
    27    10    24    1
    28     9    23    1
