@<TRIPOS>MOLECULE
p-N,N-Dimethylaminobenzaldehyde Isonicotinylhydrazone Monohydrate.
 39 39 0 0 0
SMALL
GASTEIGER

@<TRIPOS>ATOM
      1 O           0.5192   12.6137   14.0685 O.2     1  LIG1       -0.2688
      2 N           0.6241   10.0550   18.3040 N.ar    1  LIG1       -0.2632
      3 N          -0.1101   10.5581   13.3289 N.am    1  LIG1       -0.2288
      4 N          -0.0857   10.9493   11.9951 N.3     1  LIG1       -0.1326
      5 N          -0.6337   10.7353    5.5600 N.pl3   1  LIG1       -0.3360
      6 C           0.7925    9.6322   15.9604 C.ar    1  LIG1       -0.0314
      7 C           0.9498    9.2768   17.2892 C.ar    1  LIG1        0.0283
      8 C           0.1197   11.2526   18.0104 C.ar    1  LIG1        0.0283
      9 C          -0.0451   11.7096   16.7213 C.ar    1  LIG1       -0.0314
     10 C           0.2969   10.8829   15.6740 C.ar    1  LIG1        0.0408
     11 C           0.2312   11.4356   14.2740 C.2     1  LIG1        0.2589
     12 C          -0.5768   10.0846   11.1873 C.3     1  LIG1        0.0930
     13 C          -0.5894   10.2853    9.7380 C.ar    1  LIG1       -0.0252
     14 C          -0.0665   11.4250    9.1321 C.ar    1  LIG1       -0.0552
     15 C          -0.0650   11.5596    7.7572 C.ar    1  LIG1       -0.0404
     16 C          -0.6012   10.5688    6.9233 C.ar    1  LIG1        0.0292
     17 C          -1.1086    9.4185    7.5407 C.ar    1  LIG1       -0.0404
     18 C          -1.1086    9.2957    8.9184 C.ar    1  LIG1       -0.0552
     19 C          -0.1979   11.9446    4.9338 C.3     1  LIG1        0.0004
     20 C          -1.1116    9.6854    4.6913 C.3     1  LIG1        0.0004
     21 O          -1.3140    8.1572   13.9143 O.3     2  HOH2       -0.4105
     22 H          -0.4284    9.7326   13.4910 H       1  LIG1        0.1709
     23 H           1.0193    9.0417   15.2623 H       1  LIG1        0.0640
     24 H           1.3073    8.4205   17.4859 H       1  LIG1        0.0830
     25 H          -0.0443   11.8100   18.7705 H       1  LIG1        0.0830
     26 H          -0.3619   12.5658   16.5728 H       1  LIG1        0.0640
     27 H          -0.9528    9.2354   11.5461 H       1  LIG1        0.0564
     28 H           0.2585   12.1171    9.6905 H       1  LIG1        0.0621
     29 H           0.3176   12.4076    7.3517 H       1  LIG1        0.0636
     30 H          -1.4772    8.7134    7.0215 H       1  LIG1        0.0636
     31 H          -1.4920    8.4560    9.3328 H       1  LIG1        0.0621
     32 H           0.7681   12.0816    5.0215 H       1  LIG1        0.0428
     33 H          -0.4136   11.9635    4.0413 H       1  LIG1        0.0428
     34 H          -0.5909   12.7784    5.3293 H       1  LIG1        0.0428
     35 H          -0.9454    9.9795    3.8349 H       1  LIG1        0.0428
     36 H          -2.0238    9.4480    4.8324 H       1  LIG1        0.0428
     37 H          -0.7608    8.9166    4.8839 H       1  LIG1        0.0428
     38 H          -1.2187    7.6174   13.5340 H       0  HOH0        0.2052
     39 H          -1.9277    7.9363   14.5487 H       0  HOH0        0.2052
@<TRIPOS>BOND
     1    35    20    1
     2    33    19    1
     3    20    36    1
     4    20    37    1
     5    20     5    1
     6    19    32    1
     7    19    34    1
     8    19     5    1
     9     5    16    1
    10    16    17   ar
    11    16    15   ar
    12    30    17    1
    13    29    15    1
    14    17    18   ar
    15    15    14   ar
    16    18    31    1
    17    18    13   ar
    18    14    28    1
    19    14    13   ar
    20    13    12    1
    21    12    27    1
    22    12     4    1
    23     4     3    1
    24     3    22    1
    25     3    11   am
    26    38    21    1
    27    21    39    1
    28     1    11    2
    29    11    10    1
    30    23     6    1
    31    10     6   ar
    32    10     9   ar
    33     6     7   ar
    34    26     9    1
    35     9     8   ar
    36     7    24    1
    37     7     2   ar
    38     8     2   ar
    39     8    25    1
