@<TRIPOS>MOLECULE
(Z)-N-[(2S)-2-(tert-butoxycarbonylamino)propylidene]benzylamine N-oxide
 42 42 0 0 0
SMALL
GASTEIGER

@<TRIPOS>ATOM
      1 O           0.0674    3.0424    5.5321 O.3     1  LIG1       -0.1186
      2 O           2.3907    6.3070    7.2532 O.2     1  LIG1       -0.2265
      3 N          -0.8099    3.9500    5.8643 N.4     1  LIG1       -0.1433
      4 O           1.9866    8.5372    6.9709 O.3     1  LIG1       -0.4447
      5 N           0.9714    7.0902    5.6550 N.am    1  LIG1       -0.2769
      6 H           0.6105    7.8031    5.3111 H       1  LIG1        0.1523
      7 C          -0.6052    5.2264    5.7444 C.3     1  LIG1        0.0768
      8 H          -1.2554    5.8217    6.0704 H       1  LIG1        0.0522
      9 C           1.8322    7.2195    6.6833 C.2     1  LIG1        0.4010
     10 C           0.6306    5.7837    5.1048 C.3     1  LIG1        0.0429
     11 H           1.3838    5.1622    5.2670 H       1  LIG1        0.0513
     12 C           2.9059    8.9975    8.0212 C.3     1  LIG1        0.1068
     13 C          -2.0931    2.6211    7.5971 C.ar    1  LIG1       -0.0310
     14 C          -2.1369    3.4524    6.3321 C.3     1  LIG1        0.0529
     15 H          -2.5380    2.9148    5.6182 H       1  LIG1        0.0500
     16 H          -2.7225    4.2234    6.4854 H       1  LIG1        0.0500
     17 C          -1.0507    2.6762    8.5182 C.ar    1  LIG1       -0.0573
     18 H          -0.2863    3.1928    8.3378 H       1  LIG1        0.0621
     19 C           2.6983   10.5027    7.9827 C.3     1  LIG1       -0.0253
     20 H           1.7789   10.7086    8.2138 H       1  LIG1        0.0268
     21 H           2.8888   10.8331    7.0906 H       1  LIG1        0.0268
     22 H           3.2940   10.9275    8.6189 H       1  LIG1        0.0268
     23 C          -3.2053    1.8422    7.8750 C.ar    1  LIG1       -0.0573
     24 H          -3.9105    1.7990    7.2546 H       1  LIG1        0.0621
     25 C           0.4011    5.9017    3.5900 C.3     1  LIG1       -0.0449
     26 H           1.1968    6.2623    3.1692 H       1  LIG1        0.0248
     27 H          -0.3496    6.4931    3.4219 H       1  LIG1        0.0248
     28 H           0.2100    5.0245    3.2229 H       1  LIG1        0.0248
     29 C          -1.1495    1.9602    9.7103 C.ar    1  LIG1       -0.0615
     30 H          -0.4508    1.9996   10.3381 H       1  LIG1        0.0618
     31 C           4.3382    8.6421    7.6617 C.3     1  LIG1       -0.0253
     32 H           4.4500    7.6797    7.6921 H       1  LIG1        0.0268
     33 H           4.9428    9.0578    8.2956 H       1  LIG1        0.0268
     34 H           4.5364    8.9634    6.7686 H       1  LIG1        0.0268
     35 C          -3.2887    1.1211    9.0652 C.ar    1  LIG1       -0.0615
     36 H          -4.0424    0.5887    9.2435 H       1  LIG1        0.0618
     37 C          -2.2664    1.1945    9.9746 C.ar    1  LIG1       -0.0617
     38 H          -2.3262    0.7185   10.7827 H       1  LIG1        0.0618
     39 C           2.4971    8.4258    9.3680 C.3     1  LIG1       -0.0253
     40 H           1.5796    8.6736    9.5596 H       1  LIG1        0.0268
     41 H           3.0787    8.7785   10.0593 H       1  LIG1        0.0268
     42 H           2.5723    7.4581    9.3449 H       1  LIG1        0.0268
@<TRIPOS>BOND
     1    26    25    1
     2    28    25    1
     3    27    25    1
     4    25    10    1
     5    10    11    1
     6    10     5    1
     7    10     7    1
     8     6     5    1
     9     1     3    1
    10    15    14    1
    11     5     9   am
    12     7     3    1
    13     7     8    1
    14     3    14    1
    15    14    16    1
    16    14    13    1
    17     9     4    1
    18     9     2    2
    19    34    31    1
    20     4    12    1
    21    21    19    1
    22    24    23    1
    23    13    23   ar
    24    13    17   ar
    25    31    32    1
    26    31    12    1
    27    31    33    1
    28    23    35   ar
    29    19    12    1
    30    19    20    1
    31    19    22    1
    32    12    39    1
    33    18    17    1
    34    17    29   ar
    35    35    36    1
    36    35    37   ar
    37    42    39    1
    38    39    40    1
    39    39    41    1
    40    29    37   ar
    41    29    30    1
    42    37    38    1
