@<TRIPOS>MOLECULE
1,4,7,10-Tetraoxa-13,16-dithiacyclooctadecane
 21 20 0 0 0
SMALL
GASTEIGER

@<TRIPOS>ATOM
      1 C          -1.0281   -0.0847    2.7424 C.3     1  LIG1        0.0028
      2 H          -0.5070   -0.0838    1.7838 H       1  LIG1        0.0384
      3 H          -0.7807   -0.9956    3.2884 H       1  LIG1        0.0384
      4 S          -0.4239    1.3180    3.6976 S.3     1  LIG1       -0.1577
      5 C          -1.3872    1.2545    5.2253 C.3     1  LIG1        0.0172
      6 H          -1.2109    2.0626    5.7331 H       1  LIG1        0.0399
      7 H          -2.3297    1.2554    4.9937 H       1  LIG1        0.0399
      8 C          -1.1187    0.0790    6.1033 C.3     1  LIG1        0.0567
      9 H          -0.1641   -0.0800    6.1612 H       1  LIG1        0.0568
     10 H          -1.4549    0.2494    6.9978 H       1  LIG1        0.0568
     11 O          -1.7639   -1.0523    5.5537 O.3     1  LIG1       -0.3767
     12 C          -1.3485   -2.2758    6.1229 C.3     1  LIG1        0.0710
     13 H          -1.6178   -2.3158    7.0546 H       1  LIG1        0.0583
     14 H          -0.3833   -2.3500    6.0815 H       1  LIG1        0.0583
     15 C          -1.9763   -3.3903    5.3680 C.3     1  LIG1        0.0711
     16 H          -1.7798   -4.2346    5.8044 H       1  LIG1        0.0583
     17 H          -2.9394   -3.2742    5.3504 H       1  LIG1        0.0583
     18 O          -1.4738   -3.4101    4.0435 O.3     1  LIG1       -0.3752
     19 C          -2.0575   -4.4497    3.2688 C.3     1  LIG1        0.0711
     20 H          -1.8860   -5.4091    3.7579 H       1  LIG1        0.0583
     21 H          -3.1281   -4.2708    3.1850 H       1  LIG1        0.0583
@<TRIPOS>BOND
     1     2     1    1
     2     1     3    1
     3     1     4    1
     4    21    19    1
     5    19    20    1
     6    19    18    1
     7     4     5    1
     8    18    15    1
     9     7     5    1
    10     5     6    1
    11     5     8    1
    12    17    15    1
    13    15    16    1
    14    15    12    1
    15    11     8    1
    16    11    12    1
    17    14    12    1
    18     8     9    1
    19     8    10    1
    20    12    13    1
