@<TRIPOS>MOLECULE
2004044.cif
 63 65 0 0 0
SMALL
GASTEIGER

@<TRIPOS>ATOM
      1 O           6.7235    0.0842    0.2481 O.3     1  LIG1       -0.4257
      2 O           5.1867    3.9645   -3.3844 O.3     1  LIG1       -0.4260
      3 O           7.6258    1.6128    1.5821 O.2     1  LIG1       -0.2507
      4 O           4.3975    2.5695   -4.8301 O.2     1  LIG1       -0.2507
      5 C           1.2985    1.7731   -0.8346 C.3     1  LIG1       -0.0455
      6 C           0.8646    2.2341   -2.2196 C.3     1  LIG1       -0.0342
      7 C           0.3992    1.0957   -3.0772 C.2     1  LIG1       -0.0845
      8 C           0.5693   -0.1964   -2.7995 C.2     1  LIG1       -0.0704
      9 C           1.2170   -0.6654   -1.4918 C.3     1  LIG1       -0.0080
     10 C           2.1193   -1.8760   -1.7497 C.3     1  LIG1       -0.0434
     11 C           2.8546   -2.3009   -0.4879 C.3     1  LIG1       -0.0492
     12 C           3.7172   -1.1932    0.1101 C.3     1  LIG1       -0.0379
     13 C           2.9666    0.1537    0.3269 C.3     1  LIG1       -0.0218
     14 C           2.1213    0.4810   -0.9315 C.3     1  LIG1       -0.0257
     15 C           4.0390    1.2747    0.5553 C.3     1  LIG1       -0.0181
     16 C           2.1285    0.1296    1.6265 C.3     1  LIG1       -0.0587
     17 C           4.3862   -1.7424    1.3850 C.3     1  LIG1       -0.0619
     18 C           0.0519   -1.0730   -0.5684 C.3     1  LIG1       -0.0556
     19 C           0.0703   -1.2534   -3.7425 C.3     1  LIG1       -0.0433
     20 C           5.0136    1.6088   -0.5602 C.ar    1  LIG1       -0.0010
     21 C           6.2917    1.0890   -0.6572 C.ar    1  LIG1        0.1350
     22 C           7.1919    1.4498   -1.6330 C.ar    1  LIG1       -0.0155
     23 C           6.8202    2.4012   -2.5843 C.ar    1  LIG1       -0.0157
     24 C           5.5605    2.9356   -2.5021 C.ar    1  LIG1        0.1321
     25 C           4.6694    2.5668   -1.5197 C.ar    1  LIG1       -0.0125
     26 C           7.4313    0.4717    1.3258 C.2     1  LIG1        0.3092
     27 C           7.8845   -0.6775    2.1506 C.3     1  LIG1        0.0336
     28 C           4.5410    3.6639   -4.4950 C.2     1  LIG1        0.3092
     29 C           4.0614    4.8651   -5.2146 C.3     1  LIG1        0.0336
     30 H           0.4705    1.6021   -0.2629 H       1  LIG1        0.0271
     31 H           1.8657    2.5000   -0.4009 H       1  LIG1        0.0271
     32 H           1.6549    2.6884   -2.6763 H       1  LIG1        0.0307
     33 H           0.0998    2.9022   -2.1177 H       1  LIG1        0.0307
     34 H          -0.0855    1.3282   -3.9413 H       1  LIG1        0.0572
     35 H           2.8026   -1.6328   -2.4660 H       1  LIG1        0.0274
     36 H           1.5449   -2.6537   -2.0766 H       1  LIG1        0.0274
     37 H           3.4554   -3.0920   -0.7147 H       1  LIG1        0.0268
     38 H           2.1641   -2.5855    0.2070 H       1  LIG1        0.0268
     39 H           4.4382   -0.9367   -0.5635 H       1  LIG1        0.0304
     40 H           2.8699    0.6133   -1.6100 H       1  LIG1        0.0315
     41 H           4.5950    0.9955    1.3620 H       1  LIG1        0.0320
     42 H           3.5308    2.1312    0.7722 H       1  LIG1        0.0320
     43 H           2.7507    0.1376    2.4331 H       1  LIG1        0.0235
     44 H           1.5215    0.9487    1.6544 H       1  LIG1        0.0235
     45 H           1.5561   -0.7149    1.6462 H       1  LIG1        0.0235
     46 H           5.0380   -2.4840    1.1320 H       1  LIG1        0.0233
     47 H           4.8904   -0.9901    1.8548 H       1  LIG1        0.0233
     48 H           3.6703   -2.1152    2.0093 H       1  LIG1        0.0233
     49 H          -0.4084   -0.2338   -0.2119 H       1  LIG1        0.0238
     50 H          -0.6182   -1.6315   -1.0942 H       1  LIG1        0.0238
     51 H           0.4125   -1.6195    0.2119 H       1  LIG1        0.0238
     52 H          -0.4878   -0.8178   -4.4769 H       1  LIG1        0.0275
     53 H           0.8636   -1.7384   -4.1615 H       1  LIG1        0.0275
     54 H          -0.5051   -1.9215   -3.2792 H       1  LIG1        0.0275
     55 H           8.1197    1.0262   -1.6593 H       1  LIG1        0.0655
     56 H           7.4659    2.6898   -3.3187 H       1  LIG1        0.0655
     57 H           3.7457    2.9984   -1.4918 H       1  LIG1        0.0658
     58 H           8.8703   -0.5612    2.3838 H       1  LIG1        0.0342
     59 H           7.3335   -0.7175    3.0082 H       1  LIG1        0.0342
     60 H           7.7582   -1.5420    1.6248 H       1  LIG1        0.0342
     61 H           3.8231    4.6139   -6.1740 H       1  LIG1        0.0342
     62 H           3.2334    5.2352   -4.7447 H       1  LIG1        0.0342
     63 H           4.7936    5.5733   -5.2195 H       1  LIG1        0.0342
@<TRIPOS>BOND
     1    61    29    1
     2    63    29    1
     3    29    62    1
     4    29    28    1
     5     4    28    2
     6    28     2    1
     7    52    19    1
     8    53    19    1
     9    34     7    1
    10    19    54    1
    11    19     8    1
    12     2    24    1
    13    56    23    1
    14     7     8    2
    15     7     6    1
    16     8     9    1
    17    32     6    1
    18    23    24   ar
    19    23    22   ar
    20    24    25   ar
    21    35    10    1
    22     6    33    1
    23     6     5    1
    24    36    10    1
    25    10     9    1
    26    10    11    1
    27    55    22    1
    28    22    21   ar
    29    40    14    1
    30    25    57    1
    31    25    20   ar
    32     9    14    1
    33     9    18    1
    34    50    18    1
    35    14     5    1
    36    14    13    1
    37     5    31    1
    38     5    30    1
    39    37    11    1
    40    21    20   ar
    41    21     1    1
    42    18    49    1
    43    18    51    1
    44    39    12    1
    45    20    15    1
    46    11    12    1
    47    11    38    1
    48    12    13    1
    49    12    17    1
    50     1    26    1
    51    13    15    1
    52    13    16    1
    53    15    42    1
    54    15    41    1
    55    46    17    1
    56    26     3    2
    57    26    27    1
    58    17    47    1
    59    17    48    1
    60    60    27    1
    61    16    45    1
    62    16    44    1
    63    16    43    1
    64    27    58    1
    65    27    59    1
