@<TRIPOS>MOLECULE
2004041.cif
 24 25 0 0 0
SMALL
GASTEIGER

@<TRIPOS>ATOM
      1 C           2.4530    0.8858    5.0184 C.2     1  LIG1        0.1095
      2 C           0.8347    2.4684    5.7158 C.3     1  LIG1        0.0363
      3 C           0.6719    1.4105    6.8032 C.3     1  LIG1        0.0300
      4 C           1.5588    2.3693    3.3024 C.3     1  LIG1        0.0019
      5 C           1.5831    3.7162    6.1595 C.3     1  LIG1       -0.0333
      6 C           1.1531    3.1977    8.5561 C.3     1  LIG1       -0.0519
      7 N           1.5760    1.7976    4.6369 N.am    1  LIG1       -0.3180
      8 C           1.0259    4.2525    7.4721 C.3     1  LIG1       -0.0513
      9 S           2.2551    0.4960    6.7138 S.3     1  LIG1       -0.0974
     10 S           3.6453    0.1763    4.0960 S.2     1  LIG1       -0.0279
     11 C           0.3440    1.9666    8.1830 C.3     1  LIG1       -0.0390
     12 H           1.4993    4.3850    5.4873 H       1  LIG1        0.0283
     13 H           2.5034    3.5034    6.2738 H       1  LIG1        0.0283
     14 H           0.1077    4.4758    7.3544 H       1  LIG1        0.0266
     15 H           1.5080    5.0287    7.7275 H       1  LIG1        0.0266
     16 H           0.8263    3.5503    9.3762 H       1  LIG1        0.0266
     17 H           2.0653    2.9578    8.6536 H       1  LIG1        0.0266
     18 H           0.5217    1.2885    8.8284 H       1  LIG1        0.0277
     19 H          -0.5752    2.1920    8.2082 H       1  LIG1        0.0277
     20 H           2.0798    1.8195    2.7193 H       1  LIG1        0.0428
     21 H           0.6652    2.4006    2.9814 H       1  LIG1        0.0428
     22 H           1.9243    3.2405    3.3226 H       1  LIG1        0.0428
     23 H          -0.0225    2.7877    5.4587 H       1  LIG1        0.0511
     24 H          -0.0325    0.8252    6.5444 H       1  LIG1        0.0434
@<TRIPOS>BOND
     1    20     4    1
     2    21     4    1
     3     4    22    1
     4     4     7    1
     5    10     1    2
     6     7     1    1
     7     7     2    1
     8     1     9    1
     9    23     2    1
    10    12     5    1
    11     2     5    1
    12     2     3    1
    13     5    13    1
    14     5     8    1
    15    24     3    1
    16     9     3    1
    17     3    11    1
    18    14     8    1
    19     8    15    1
    20     8     6    1
    21    11    19    1
    22    11     6    1
    23    11    18    1
    24     6    17    1
    25     6    16    1
