@<TRIPOS>MOLECULE
C12 H18 O5
 20 19 0 0 0
SMALL
GASTEIGER

@<TRIPOS>ATOM
      1 O           2.4471    2.6723   15.4132 O.2     1  LIG1       -0.2887
      2 O           2.4481    1.5027   10.9516 O.2     1  LIG1       -0.2510
      3 O           1.0426   -0.1102   11.5394 O.3     1  LIG1       -0.4806
      4 C           1.5010    3.4369   15.4132 C.2     1  LIG1        0.2014
      5 C           0.9331    4.0024   14.1370 C.3     1  LIG1        0.0255
      6 C           1.2380    5.5065   14.1555 C.3     1  LIG1       -0.0431
      7 C           0.7190    6.1915   15.4132 C.3     1  LIG1       -0.0524
      8 C           1.4315    3.3095   12.8752 C.3     1  LIG1       -0.0330
      9 C           0.9485    1.8797   12.7601 C.3     1  LIG1        0.0454
     10 C           1.5467    1.0885   11.6565 C.2     1  LIG1        0.3047
     11 H           1.3998   -0.5204   10.9126 H       1  LIG1        0.2951
     12 H          -0.0131    3.8444   14.1021 H       1  LIG1        0.0382
     13 H           0.8221    5.9153   13.3931 H       1  LIG1        0.0272
     14 H           2.1888    5.6286   14.1042 H       1  LIG1        0.0272
     15 H           0.9540    7.1247   15.4132 H       1  LIG1        0.0265
     16 H          -0.2621    6.1583   15.4132 H       1  LIG1        0.0265
     17 H           2.3912    3.3028   12.8937 H       1  LIG1        0.0277
     18 H           1.1303    3.8046   12.1107 H       1  LIG1        0.0277
     19 H          -0.0014    1.9050   12.6224 H       1  LIG1        0.0378
     20 H           1.1396    1.4297   13.5863 H       1  LIG1        0.0378
@<TRIPOS>BOND
     1    11     3    1
     2     2    10    2
     3     3    10    1
     4    10     9    1
     5    18     8    1
     6    19     9    1
     7     9     8    1
     8     9    20    1
     9     8    17    1
    10     8     5    1
    11    13     6    1
    12    12     5    1
    13    14     6    1
    14     5     6    1
    15     5     4    1
    16     6     7    1
    17     7    15    1
    18     7    16    1
    19     4     1    2
