@<TRIPOS>MOLECULE
3,4;3',4'-Bis(ethylenedithio)-2,2',5,5'-tetrathiafulvalene  Hexafluorophosphate Chloroacetyl chloride solvate
 34 34 0 0 0
SMALL
GASTEIGER

@<TRIPOS>ATOM
      1 S          -0.2206   -4.0515    7.1421 S.3     1  LIG1       -0.0721
      2 S          -1.0490   -4.4815   10.2265 S.3     1  LIG1       -0.0721
      3 S           2.6021   -3.8661    7.9141 S.3     1  LIG1       -0.0721
      4 S           1.7656   -4.2412   11.0109 S.3     1  LIG1       -0.0721
      5 S           0.2400   -3.7028    4.2640 S.3     1  LIG1       -0.1157
      6 S          -2.0798   -4.8473   12.9369 S.3     1  LIG1       -0.1157
      7 S           3.6275   -3.5034    5.2025 S.3     1  LIG1       -0.1157
      8 S           1.2872   -4.4449   13.9041 S.3     1  LIG1       -0.1157
      9 C           0.9531   -4.0660    8.4190 C.2     1  LIG1        0.0717
     10 C           0.5932   -4.2408    9.7239 C.2     1  LIG1        0.0717
     11 C           0.9235   -3.8102    5.8630 C.2     1  LIG1        0.0662
     12 C          -0.6987   -4.5626   11.9340 C.2     1  LIG1        0.0662
     13 C           2.2352   -3.7433    6.2197 C.2     1  LIG1        0.0662
     14 C           0.6007   -4.4318   12.2996 C.2     1  LIG1        0.0662
     15 C           1.7034   -3.8836    3.2371 C.3     1  LIG1        0.0082
     16 C          -1.3038   -5.3181   14.4918 C.3     1  LIG1        0.0082
     17 C           2.8682   -3.0099    3.6619 C.3     1  LIG1        0.0082
     18 C          -0.1919   -4.3813   14.9202 C.3     1  LIG1        0.0082
     19 P           3.4265    0.0000    0.0000 P.3     2  LIG2        0.4568
     20 F           3.7130    1.1008    1.1095 F       2  LIG2       -0.1523
     21 F           1.9170    0.3318    0.0914 F       2  LIG2       -0.1523
     22 F           3.2386   -1.0693    1.1077 F       2  LIG2       -0.1523
     23 CL          2.4458    2.5612   -0.2938 Cl      3  LIG3        0.0000
     24 O          -1.2692   -3.5809    1.6652 O.3     2  LIG2       -0.1279
     25 C          -0.9883   -3.4483    0.5718 C.1     2  LIG2        0.1075
     26 C          -1.1001   -3.4855   -0.6202 C.1     2  LIG2        0.0205
     27 H           1.4694   -3.6545    2.3355 H       1  LIG1        0.0388
     28 H           1.9861   -4.8001    3.2730 H       1  LIG1        0.0388
     29 H          -0.9372   -6.2002   14.3932 H       1  LIG1        0.0388
     30 H          -1.9754   -5.3255   15.1765 H       1  LIG1        0.0388
     31 H           3.5358   -3.0422    2.9718 H       1  LIG1        0.0388
     32 H           2.5503   -2.1092    3.7569 H       1  LIG1        0.0388
     33 H          -0.5353   -3.4837   14.8951 H       1  LIG1        0.0388
     34 H           0.0558   -4.6048   15.8200 H       1  LIG1        0.0388
@<TRIPOS>BOND
     1    26    25    3
     2    19    21    1
     3    19    22    1
     4    19    20    1
     5    25    24    1
     6    27    15    1
     7    31    17    1
     8    15    28    1
     9    15    17    1
    10    15     5    1
    11    17    32    1
    12    17     7    1
    13     5    11    1
    14     7    13    1
    15    11    13    2
    16    11     1    1
    17    13     3    1
    18     1     9    1
    19     3     9    2
    20     9    10    1
    21    10     2    1
    22    10     4    2
    23     2    12    1
    24     4    14    1
    25    12    14    2
    26    12     6    1
    27    14     8    1
    28     6    16    1
    29     8    18    1
    30    29    16    1
    31    16    18    1
    32    16    30    1
    33    33    18    1
    34    18    34    1
