@<TRIPOS>MOLECULE
2004396.cif
 92 94 0 0 0
SMALL
GASTEIGER

@<TRIPOS>ATOM
      1 O          -2.1459   10.7043   14.8004 O.3     1  LIG1       -0.2653
      2 N          -1.1288   11.1425   15.6507 N.am    1  LIG1       -0.1122
      3 O          -1.2305    9.1518   16.6839 O.2     1  LIG1       -0.2710
      4 C          -0.7397   10.2434   16.6683 C.2     1  LIG1        0.2656
      5 C           0.3143   10.7974   17.5826 C.3     1  LIG1        0.1055
      6 C           0.2573   12.3196   17.6952 C.3     1  LIG1       -0.0174
      7 C           0.4118   12.9190   16.3041 C.3     1  LIG1        0.0287
      8 O          -1.0449   13.0780   14.4050 O.2     1  LIG1       -0.2731
      9 C          -0.6231   12.4494   15.3553 C.2     1  LIG1        0.2453
     10 C          -1.6040   10.0303   13.6141 C.3     1  LIG1        0.0991
     11 C          -2.6191   10.2315   12.5575 C.ar    1  LIG1       -0.0196
     12 C          -3.3892    9.1842   12.0964 C.ar    1  LIG1       -0.0563
     13 C          -4.3804    9.2513   11.1210 C.ar    1  LIG1       -0.0614
     14 C          -4.5774   10.5593   10.6224 C.ar    1  LIG1       -0.0617
     15 C          -3.7826   11.6694   11.0226 C.ar    1  LIG1       -0.0614
     16 C          -2.7997   11.4238   11.9698 C.ar    1  LIG1       -0.0563
     17 N           0.2500   10.0898   18.8565 N.am    1  LIG1       -0.2697
     18 O          -1.9230   10.6794   19.3442 O.2     1  LIG1       -0.2264
     19 C          -0.8516   10.2478   19.6677 C.2     1  LIG1        0.4014
     20 O          -0.5322    9.7187   20.8525 O.3     1  LIG1       -0.4447
     21 C          -1.4794    9.7328   21.9216 C.3     1  LIG1        0.1068
     22 C          -2.7488    8.8553   21.5950 C.3     1  LIG1       -0.0253
     23 C          -1.8834   11.0538   22.3624 C.3     1  LIG1       -0.0253
     24 C          -0.7189    9.0696   23.0892 C.3     1  LIG1       -0.0253
     25 O           2.9698   10.1753   14.6472 O.3     2  LIG2       -0.2653
     26 N           4.0095    9.7966   15.4757 N.am    2  LIG2       -0.1122
     27 O           3.4247   11.5201   16.9074 O.2     2  LIG2       -0.2710
     28 C           3.9737   10.4750   16.6792 C.2     2  LIG2        0.2656
     29 C           4.8086    9.6982   17.7843 C.3     2  LIG2        0.1055
     30 C           6.0555    9.0977   17.2669 C.3     2  LIG2       -0.0174
     31 O           3.0248    9.9827   19.8772 O.2     2  LIG2       -0.2264
     32 C           5.7620    8.1792   16.1024 C.3     2  LIG2        0.0287
     33 O           4.3935    8.0785   14.1142 O.2     2  LIG2       -0.2731
     34 C           4.6550    8.5881   15.1584 C.2     2  LIG2        0.2453
     35 C           3.3729   11.0700   13.5719 C.3     2  LIG2        0.0991
     36 C           2.3357   10.9510   12.4355 C.ar    2  LIG2       -0.0196
     37 C           1.5622   12.0123   12.1182 C.ar    2  LIG2       -0.0563
     38 C           0.6119   11.7927   11.1538 C.ar    2  LIG2       -0.0614
     39 C           0.5456   10.6015   10.4223 C.ar    2  LIG2       -0.0617
     40 C           1.3478    9.6267   10.7647 C.ar    2  LIG2       -0.0614
     41 C           2.2234    9.7263   11.7712 C.ar    2  LIG2       -0.0563
     42 N           5.0376   10.5128   18.9769 N.am    2  LIG2       -0.2697
     43 C           4.0840   10.5734   19.8866 C.2     2  LIG2        0.4014
     44 O           4.5146   11.3859   20.9135 O.3     2  LIG2       -0.4447
     45 C           3.7057   11.6164   22.1045 C.3     2  LIG2        0.1068
     46 C           2.4688   12.2709   21.7716 C.3     2  LIG2       -0.0253
     47 C           3.3488   10.2456   22.7985 C.3     2  LIG2       -0.0253
     48 C           4.6141   12.3401   22.9970 C.3     2  LIG2       -0.0253
     49 H           1.1397   10.4771   17.0324 H       1  LIG1        0.0596
     50 H           0.7375   12.4743   18.5533 H       1  LIG1        0.0292
     51 H          -0.6413   12.6961   18.0078 H       1  LIG1        0.0292
     52 H           1.2669   12.7513   15.7289 H       1  LIG1        0.0360
     53 H           0.2722   13.9414   16.5463 H       1  LIG1        0.0360
     54 H          -0.7819   10.6600   13.5453 H       1  LIG1        0.0634
     55 H          -1.4829    9.1009   14.0877 H       1  LIG1        0.0634
     56 H          -3.7159    8.2949   12.5434 H       1  LIG1        0.0621
     57 H          -4.8758    8.3079   10.9850 H       1  LIG1        0.0618
     58 H          -5.3530   10.3213    9.9597 H       1  LIG1        0.0618
     59 H          -3.8379   12.6290   10.6162 H       1  LIG1        0.0618
     60 H          -2.2037   12.1995   12.3621 H       1  LIG1        0.0621
     61 H           1.0027    9.4937   19.1394 H       1  LIG1        0.1528
     62 H          -3.0070    8.7785   20.5821 H       1  LIG1        0.0268
     63 H          -3.0892    8.6768   22.5734 H       1  LIG1        0.0268
     64 H          -2.8723    7.9530   21.0620 H       1  LIG1        0.0268
     65 H          -2.6378   11.2961   23.0329 H       1  LIG1        0.0268
     66 H          -2.0155   11.4151   21.3964 H       1  LIG1        0.0268
     67 H          -1.1963   11.8544   22.3671 H       1  LIG1        0.0268
     68 H          -0.2947    8.2278   22.7563 H       1  LIG1        0.0268
     69 H          -0.0086    9.6560   23.4690 H       1  LIG1        0.0268
     70 H          -1.3737    8.8499   23.8129 H       1  LIG1        0.0268
     71 H           4.0910    9.0382   18.1062 H       2  LIG2        0.0596
     72 H           1.7720   12.8162   12.7575 H       2  LIG2        0.0621
     73 H           0.0700   12.1497   10.3708 H       2  LIG2        0.0618
     74 H          -0.0242   10.0314    9.7502 H       2  LIG2        0.0618
     75 H           1.3114    8.8694   10.0503 H       2  LIG2        0.0618
     76 H           2.8710    8.9073   11.7525 H       2  LIG2        0.0621
     77 H           6.0194   10.4371   19.0910 H       2  LIG2        0.1528
     78 H           6.5844    9.8594   16.8980 H       2  LIG2        0.0292
     79 H           6.6931    8.7883   17.9953 H       2  LIG2        0.0292
     80 H           6.4803    8.0580   15.3897 H       2  LIG2        0.0360
     81 H           5.1625    7.5527   16.6057 H       2  LIG2        0.0360
     82 H           3.2393   11.8901   14.2174 H       2  LIG2        0.0634
     83 H           4.2983   10.8947   13.1874 H       2  LIG2        0.0634
     84 H           1.5906   12.4061   22.3093 H       2  LIG2        0.0268
     85 H           1.7476   11.8327   21.1589 H       2  LIG2        0.0268
     86 H           2.7144   13.2306   21.4605 H       2  LIG2        0.0268
     87 H           3.2693   10.2002   23.8473 H       2  LIG2        0.0268
     88 H           4.2905    9.7652   22.8704 H       2  LIG2        0.0268
     89 H           2.8967    9.5153   22.1811 H       2  LIG2        0.0268
     90 H           5.4010   11.7624   23.2143 H       2  LIG2        0.0268
     91 H           4.9417   13.2187   22.5187 H       2  LIG2        0.0268
     92 H           4.1329   12.5782   23.8410 H       2  LIG2        0.0268
@<TRIPOS>BOND
     1    74    39    1
     2    58    14    1
     3    75    40    1
     4    73    38    1
     5    39    40   ar
     6    39    38   ar
     7    59    15    1
     8    14    15   ar
     9    14    13   ar
    10    40    41   ar
    11    57    13    1
    12    15    16   ar
    13    13    12   ar
    14    38    37   ar
    15    76    41    1
    16    41    36   ar
    17    16    60    1
    18    16    11   ar
    19    12    56    1
    20    12    11   ar
    21    37    36   ar
    22    37    72    1
    23    36    35    1
    24    11    10    1
    25    83    35    1
    26    54    10    1
    27    35    82    1
    28    35    25    1
    29    10    55    1
    30    10     1    1
    31    33    34    2
    32     8     9    2
    33    25    26    1
    34     1     2    1
    35    34    26   am
    36    34    32    1
    37     9     2   am
    38     9     7    1
    39    80    32    1
    40    26    28   am
    41     2     4   am
    42    52     7    1
    43    32    81    1
    44    32    30    1
    45     7    53    1
    46     7     6    1
    47     4     3    2
    48     4     5    1
    49    28    27    2
    50    28    29    1
    51    78    30    1
    52    49     5    1
    53    30    29    1
    54    30    79    1
    55     5     6    1
    56     5    17    1
    57     6    51    1
    58     6    50    1
    59    29    71    1
    60    29    42    1
    61    17    61    1
    62    17    19   am
    63    42    77    1
    64    42    43   am
    65    18    19    2
    66    19    20    1
    67    31    43    2
    68    43    44    1
    69    62    22    1
    70    20    21    1
    71    44    45    1
    72    64    22    1
    73    85    46    1
    74    66    23    1
    75    86    46    1
    76    22    21    1
    77    22    63    1
    78    46    45    1
    79    46    84    1
    80    21    23    1
    81    21    24    1
    82    45    47    1
    83    45    48    1
    84    89    47    1
    85    23    67    1
    86    23    65    1
    87    91    48    1
    88    68    24    1
    89    47    88    1
    90    47    87    1
    91    48    90    1
    92    48    92    1
    93    24    69    1
    94    24    70    1
