@<TRIPOS>MOLECULE
?
 54 58 0 0 0
SMALL
GASTEIGER

@<TRIPOS>ATOM
      1 O           9.0846    1.7224    6.4475 O.3     1  LIG1       -0.4800
      2 O           9.6899    3.7943    6.8804 O.2     1  LIG1       -0.2500
      3 O           7.8193    1.3841    3.0409 O.3     1  LIG1       -0.4554
      4 C          10.1046    4.1724    3.5867 C.ar    1  LIG1       -0.0540
      5 C          10.9326    4.0281    2.4897 C.ar    1  LIG1       -0.0612
      6 C          10.7115    2.9981    1.6132 C.ar    1  LIG1       -0.0583
      7 C           9.6608    2.1343    1.8068 C.ar    1  LIG1       -0.0190
      8 C           5.6858    0.8499    3.8583 C.ar    1  LIG1       -0.0190
      9 C           4.6561    1.0505    4.7348 C.ar    1  LIG1       -0.0583
     10 C           4.7287    2.0222    5.7108 C.ar    1  LIG1       -0.0612
     11 C           5.8601    2.8241    5.7995 C.ar    1  LIG1       -0.0540
     12 C           8.2002    3.4284    5.0548 C.3     1  LIG1        0.1129
     13 C           6.8155    1.6467    3.9605 C.ar    1  LIG1        0.1327
     14 C           6.9382    2.6209    4.9257 C.ar    1  LIG1        0.0131
     15 C           9.0572    3.3035    3.8153 C.ar    1  LIG1        0.0131
     16 C           8.8474    2.2950    2.9199 C.ar    1  LIG1        0.1327
     17 C           9.0524    2.9842    6.2378 C.2     1  LIG1        0.3169
     18 H           9.5704    1.5863    7.3939 H       1  LIG1        0.2951
     19 O          11.2618    3.1874    8.9211 O.3     2  LIG2       -0.4800
     20 O          10.6953    1.1145    8.4613 O.2     2  LIG2       -0.2500
     21 O          12.6594    3.4852   12.3196 O.3     2  LIG2       -0.4554
     22 C          10.3273    0.7077   11.7792 C.ar    2  LIG2       -0.0540
     23 C           9.5317    0.8371   12.8869 C.ar    2  LIG2       -0.0612
     24 C           9.8061    1.8416   13.7877 C.ar    2  LIG2       -0.0583
     25 C          10.8406    2.7217   13.5860 C.ar    2  LIG2       -0.0190
     26 C          14.7091    4.1090   11.3786 C.ar    2  LIG2       -0.0190
     27 C          15.6936    3.9841   10.4456 C.ar    2  LIG2       -0.0583
     28 C          15.5951    3.0247    9.4750 C.ar    2  LIG2       -0.0612
     29 C          14.4815    2.2024    9.4239 C.ar    2  LIG2       -0.0540
     30 C          12.2108    1.4916   10.2681 C.3     2  LIG2        0.1129
     31 C          13.5971    3.2810   11.3329 C.ar    2  LIG2        0.1327
     32 C          13.4567    2.3175   10.3542 C.ar    2  LIG2        0.0131
     33 C          11.3877    1.5801   11.5345 C.ar    2  LIG2        0.0131
     34 C          11.6362    2.5866   12.4514 C.ar    2  LIG2        0.1327
     35 C          11.3280    1.9225    9.1201 C.2     2  LIG2        0.3169
     36 H          10.4419    3.4335    8.2543 H       2  LIG2        0.2951
     37 H          10.2660    4.9077    4.2132 H       1  LIG1        0.0622
     38 H          11.6701    4.6554    2.3419 H       1  LIG1        0.0618
     39 H          11.3038    2.8783    0.8416 H       1  LIG1        0.0619
     40 H           9.4897    1.4123    1.1669 H       1  LIG1        0.0654
     41 H           5.6261    0.1556    3.1700 H       1  LIG1        0.0654
     42 H           3.8524    0.4938    4.6676 H       1  LIG1        0.0619
     43 H           3.9863    2.1466    6.3373 H       1  LIG1        0.0618
     44 H           5.9053    3.5333    6.4744 H       1  LIG1        0.0622
     45 H           7.9598    4.3704    5.1757 H       1  LIG1        0.0514
     46 H          10.1466   -0.0148   11.1420 H       2  LIG2        0.0622
     47 H           8.7812    0.2257   13.0375 H       2  LIG2        0.0618
     48 H           9.2509    1.9312   14.5916 H       2  LIG2        0.0619
     49 H          11.0181    3.4361   14.2340 H       2  LIG2        0.0654
     50 H          14.7849    4.7859   12.0830 H       2  LIG2        0.0654
     51 H          16.4715    4.5797   10.4725 H       2  LIG2        0.0619
     52 H          16.3133    2.9203    8.8136 H       2  LIG2        0.0618
     53 H          14.4170    1.5259    8.7168 H       2  LIG2        0.0622
     54 H          12.4674    0.5562   10.1283 H       2  LIG2        0.0514
@<TRIPOS>BOND
     1    39     6    1
     2    40     7    1
     3     6     7   ar
     4     6     5   ar
     5     7    16   ar
     6    38     5    1
     7     5     4   ar
     8    16     3    1
     9    16    15   ar
    10     3    13    1
    11    41     8    1
    12     4    15   ar
    13     4    37    1
    14    15    12    1
    15     8    13   ar
    16     8     9   ar
    17    13    14   ar
    18    42     9    1
    19     9    10   ar
    20    14    12    1
    21    14    11   ar
    22    12    45    1
    23    12    17    1
    24    10    11   ar
    25    10    43    1
    26    11    44    1
    27    17     1    1
    28    17     2    2
    29     1    18    1
    30    36    19    1
    31    20    35    2
    32    53    29    1
    33    52    28    1
    34    19    35    1
    35    35    30    1
    36    29    28   ar
    37    29    32   ar
    38    28    27   ar
    39    54    30    1
    40    30    32    1
    41    30    33    1
    42    32    31   ar
    43    27    51    1
    44    27    26   ar
    45    46    22    1
    46    31    26   ar
    47    31    21    1
    48    26    50    1
    49    33    22   ar
    50    33    34   ar
    51    22    23   ar
    52    21    34    1
    53    34    25   ar
    54    23    47    1
    55    23    24   ar
    56    25    24   ar
    57    25    49    1
    58    24    48    1
