@<TRIPOS>MOLECULE
(1R*,2R*)-2-[(S*)-1-benzyloxyethyl]-1-(1-[(Z)-(2,4-dinitrophenylhydrazono] ethyl)cyclopropane
 51 53 0 0 0
SMALL
GASTEIGER

@<TRIPOS>ATOM
      1 O           1.1195    0.6257    4.6258 O.3     1  LIG1       -0.3720
      2 O          -0.7771    3.2444    3.0060 O.2     1  LIG1       -0.1261
      3 O          -2.8670    3.5694    2.7130 O.2     1  LIG1       -0.1261
      4 O          -4.9845    3.0392   -1.4578 O.2     1  LIG1       -0.1261
      5 O          -3.9045    2.2029   -3.1418 O.2     1  LIG1       -0.1261
      6 N           1.8081    1.6082    0.5431 N.2     1  LIG1       -0.1914
      7 N           0.6542    2.0956    1.1386 N.pl3   1  LIG1       -0.2356
      8 N          -1.7866    3.2157    2.3010 N.pl3   1  LIG1        0.0584
      9 N          -3.9840    2.5604   -1.9651 N.pl3   1  LIG1        0.0565
     10 C           0.0595    0.9569    5.5095 C.3     1  LIG1        0.0730
     11 C          -1.2565    0.5628    4.9187 C.ar    1  LIG1       -0.0219
     12 C          -2.4270    0.9724    5.5333 C.ar    1  LIG1       -0.0564
     13 C          -3.6588    0.5838    5.0116 C.ar    1  LIG1       -0.0614
     14 C          -3.7258   -0.1920    3.9112 C.ar    1  LIG1       -0.0617
     15 C          -2.5920   -0.5838    3.3038 C.ar    1  LIG1       -0.0614
     16 C          -1.3654   -0.1951    3.7897 C.ar    1  LIG1       -0.0564
     17 C           3.0241    0.4625    6.1502 C.3     1  LIG1       -0.0384
     18 C           2.3815    1.1939    4.9973 C.3     1  LIG1        0.0597
     19 C           3.2264    1.1481    3.7730 C.3     1  LIG1       -0.0064
     20 C           4.2064    2.2207    3.4491 C.3     1  LIG1       -0.0389
     21 C           2.9273    2.1197    2.6559 C.3     1  LIG1        0.0042
     22 C           2.8606    1.6292    1.2767 C.2     1  LIG1        0.0372
     23 C           4.0924    1.0540    0.6241 C.3     1  LIG1       -0.0245
     24 C          -0.4823    2.2106    0.4168 C.ar    1  LIG1        0.0785
     25 C          -1.6885    2.7322    0.9385 C.ar    1  LIG1        0.1507
     26 C          -2.8154    2.8387    0.1596 C.ar    1  LIG1        0.0006
     27 C          -2.7869    2.4462   -1.1338 C.ar    1  LIG1        0.1285
     28 C          -1.6299    1.9192   -1.6864 C.ar    1  LIG1       -0.0296
     29 C          -0.5050    1.8111   -0.9337 C.ar    1  LIG1       -0.0348
     30 H           0.5716    2.2930    1.9532 H       1  LIG1        0.1744
     31 H           0.2294    0.5441    6.3598 H       1  LIG1        0.0610
     32 H           0.0615    1.9277    5.6452 H       1  LIG1        0.0610
     33 H          -2.3331    1.3836    6.3836 H       1  LIG1        0.0621
     34 H          -4.3231    0.8550    5.5023 H       1  LIG1        0.0618
     35 H          -4.5554   -0.4508    3.5253 H       1  LIG1        0.0618
     36 H          -2.5979   -1.0260    2.4772 H       1  LIG1        0.0618
     37 H          -0.5646   -0.4353    3.3586 H       1  LIG1        0.0621
     38 H           3.1913   -0.4975    5.9311 H       1  LIG1        0.0255
     39 H           3.8454    0.9328    6.4075 H       1  LIG1        0.0255
     40 H           2.4824    0.4742    6.8839 H       1  LIG1        0.0255
     41 H           2.2534    2.1143    5.2165 H       1  LIG1        0.0596
     42 H           3.4683    0.3109    3.4538 H       1  LIG1        0.0332
     43 H           4.9987    1.9821    3.0251 H       1  LIG1        0.0275
     44 H           4.2155    2.9537    4.0493 H       1  LIG1        0.0275
     45 H           2.3168    2.7516    2.8822 H       1  LIG1        0.0365
     46 H           4.5326    0.3498    1.2624 H       1  LIG1        0.0290
     47 H           4.7598    1.6945    0.5955 H       1  LIG1        0.0290
     48 H           3.9258    0.6840   -0.1667 H       1  LIG1        0.0290
     49 H          -3.5986    3.1792    0.5717 H       1  LIG1        0.0664
     50 H          -1.5977    1.6712   -2.5725 H       1  LIG1        0.0641
     51 H           0.2717    1.4846   -1.2624 H       1  LIG1        0.0638
@<TRIPOS>BOND
     1     5     9    2
     2    50    28    1
     3     9     4    2
     4     9    27    1
     5    28    27   ar
     6    28    29   ar
     7    51    29    1
     8    27    26   ar
     9    29    24   ar
    10    48    23    1
    11    26    49    1
    12    26    25   ar
    13    24    25   ar
    14    24     7    1
    15     6     7    1
    16     6    22    2
    17    47    23    1
    18    23    46    1
    19    23    22    1
    20    25     8    1
    21     7    30    1
    22    22    21    1
    23     8     3    2
    24     8     2    2
    25    36    15    1
    26    21    45    1
    27    21    20    1
    28    21    19    1
    29    43    20    1
    30    15    16   ar
    31    15    14   ar
    32    37    16    1
    33    20    19    1
    34    20    44    1
    35    42    19    1
    36    35    14    1
    37    19    18    1
    38    16    11   ar
    39    14    13   ar
    40     1    18    1
    41     1    10    1
    42    11    10    1
    43    11    12   ar
    44    18    41    1
    45    18    17    1
    46    13    34    1
    47    13    12   ar
    48    10    32    1
    49    10    31    1
    50    12    33    1
    51    38    17    1
    52    17    39    1
    53    17    40    1
