@<TRIPOS>MOLECULE
1-propene-cis(1,2),3-tricarboxylic acid
 18 17 0 0 0
SMALL
GASTEIGER

@<TRIPOS>ATOM
      1 O           4.1589    7.3145    4.8938 O.3     1  LIG1       -0.4775
      2 H           4.5580    7.9186    4.2360 H       1  LIG1        0.2954
      3 O           4.3215    5.9564    3.1613 O.2     1  LIG1       -0.2458
      4 O           3.4974    3.7312    2.5782 O.3     1  LIG1       -0.4773
      5 H           3.8714    4.6424    2.8352 H       1  LIG1        0.2954
      6 O           2.4714    2.0816    3.5846 O.2     1  LIG1       -0.2455
      7 O           4.2497    1.5312    6.0033 O.2     1  LIG1       -0.2506
      8 O           2.3290    0.8797    6.9211 O.3     1  LIG1       -0.4804
      9 H           2.7599    0.1145    7.0470 H       1  LIG1        0.2951
     10 C           3.4023    5.1444    5.2393 C.2     1  LIG1        0.0328
     11 H           3.3286    5.4727    6.1395 H       1  LIG1        0.0694
     12 C           2.9960    3.8931    4.9699 C.2     1  LIG1        0.0537
     13 C           2.3919    3.0595    6.0662 C.3     1  LIG1        0.0768
     14 H           1.4423    2.8896    5.8439 H       1  LIG1        0.0429
     15 H           2.4117    3.5836    6.9059 H       1  LIG1        0.0429
     16 C           3.9916    6.1564    4.3274 C.2     1  LIG1        0.3300
     17 C           2.9827    3.1894    3.6403 C.2     1  LIG1        0.3335
     18 C           3.0701    1.7333    6.3138 C.2     1  LIG1        0.3093
@<TRIPOS>BOND
     1     4     5    1
     2     4    17    1
     3     3    16    2
     4     6    17    2
     5    17    12    1
     6     2     1    1
     7    16     1    1
     8    16    10    1
     9    12    10    2
    10    12    13    1
    11    10    11    1
    12    14    13    1
    13     7    18    2
    14    13    18    1
    15    13    15    1
    16    18     8    1
    17     8     9    1
