@<TRIPOS>MOLECULE
2,2':6',2"-Terpyridinium Trifluoromethanesulfonate
 38 39 0 0 0
SMALL
GASTEIGER

@<TRIPOS>ATOM
      1 S          11.1471    4.7265    2.9233 S.3     1  LIG1        0.2092
      2 O          10.8807    4.4711    1.5445 O.2     1  LIG1       -0.1362
      3 O          11.6837    6.0265    3.1997 O.2     1  LIG1       -0.1362
      4 O          11.7595    3.6421    3.6351 O.3     1  LIG1       -0.0397
      5 F           8.7375    5.7064    3.0464 F       1  LIG1       -0.1486
      6 F           8.8767    3.6511    3.6232 F       1  LIG1       -0.1486
      7 F           9.5791    5.1925    4.9381 F       1  LIG1       -0.1486
      8 C           9.5077    4.8211    3.6663 C.3     1  LIG1        0.5487
      9 N          12.1316    8.5805    4.3013 N.pl3   2  LIG2       -0.3194
     10 C          12.5569    9.8029    3.9472 C.2     2  LIG2        0.0533
     11 C          13.3469   10.4959    4.8392 C.2     2  LIG2       -0.0530
     12 C          13.6523    9.9305    6.0528 C.3     2  LIG2        0.0085
     13 C          13.1537    8.6963    6.4062 C.2     2  LIG2       -0.0625
     14 C          12.3896    8.0199    5.4898 C.2     2  LIG2       -0.0095
     15 N          11.2471    9.5005    1.9836 N.ar    2  LIG2       -0.2439
     16 C          12.0987   10.3035    2.6342 C.ar    2  LIG2        0.0854
     17 C          12.5088   11.5378    2.1325 C.ar    2  LIG2       -0.0344
     18 C          12.0063   11.9413    0.9227 C.ar    2  LIG2       -0.0576
     19 C          11.1184   11.1324    0.2415 C.ar    2  LIG2       -0.0341
     20 C          10.7685    9.9028    0.8013 C.ar    2  LIG2        0.0899
     21 N           9.5232    9.3066   -1.1623 N.ar    2  LIG2       -0.2534
     22 C           9.8780    8.9629    0.0782 C.ar    2  LIG2        0.0891
     23 C           9.4788    7.7758    0.6625 C.ar    2  LIG2       -0.0342
     24 C           8.7061    6.9012   -0.0613 C.ar    2  LIG2       -0.0583
     25 C           8.3447    7.2295   -1.3418 C.ar    2  LIG2       -0.0436
     26 C           8.7609    8.4451   -1.8379 C.ar    2  LIG2        0.0283
     27 H          11.7133    8.0172    3.5988 H       2  LIG2        0.1516
     28 H          13.6660   11.4469    4.6015 H       2  LIG2        0.0597
     29 H          14.1786   10.4477    6.7334 H       2  LIG2        0.0395
     30 H          13.3381    8.3619    7.3577 H       2  LIG2        0.0591
     31 H          11.8886    7.1286    5.5943 H       2  LIG2        0.0778
     32 H          13.2241   12.0241    2.6029 H       2  LIG2        0.0639
     33 H          12.2653   12.8807    0.6387 H       2  LIG2        0.0619
     34 H          10.6501   11.4803   -0.6318 H       2  LIG2        0.0639
     35 H           9.7461    7.4951    1.5758 H       2  LIG2        0.0639
     36 H           8.4748    5.9824    0.3503 H       2  LIG2        0.0619
     37 H           7.9113    6.6386   -2.1656 H       2  LIG2        0.0633
     38 H           8.5331    8.6645   -2.7881 H       2  LIG2        0.0830
@<TRIPOS>BOND
     1    38    26    1
     2    37    25    1
     3    26    25   ar
     4    26    21   ar
     5    25    24   ar
     6    21    22   ar
     7    34    19    1
     8    24    36    1
     9    24    23   ar
    10    22    23   ar
    11    22    20    1
    12    19    20   ar
    13    19    18   ar
    14    33    18    1
    15    23    35    1
    16    20    15   ar
    17    18    17   ar
    18     2     1    2
    19    15    16   ar
    20    17    32    1
    21    17    16   ar
    22    16    10    1
    23     1     3    2
    24     1     4    1
    25     1     8    1
    26     5     8    1
    27    27     9    1
    28     6     8    1
    29     8     7    1
    30    10     9    1
    31    10    11    2
    32     9    14    1
    33    28    11    1
    34    11    12    1
    35    14    31    1
    36    14    13    2
    37    12    13    1
    38    12    29    1
    39    13    30    1
