@<TRIPOS>MOLECULE
triammonium phosphonoacetate dihydrate
 31 25 0 0 0
SMALL
GASTEIGER

@<TRIPOS>ATOM
      1 P           4.3968    2.3721    5.2195 P.3     1  LIG1        0.1192
      2 O           5.2604    3.1165    4.2138 O.2     1  LIG1       -0.4602
      3 O           5.2231    1.4249    6.0934 O.3     1  LIG1       -0.3572
      4 O           3.2315    1.6435    4.5545 O.3     1  LIG1       -0.3572
      5 O           1.6541    4.4764    5.5092 O.co2   1  LIG1       -0.2459
      6 O           3.5176    5.5944    5.0389 O.co2   1  LIG1       -0.2459
      7 O           0.4044    2.8142    7.1597 O.3     2  HOH2       -0.4105
      8 O           4.7314    0.7244    8.7239 O.3     3  HOH3       -0.4105
      9 C           2.8978    4.6489    5.5846 C.2     1  LIG1        0.3630
     10 C           3.7102    3.6181    6.3462 C.3     1  LIG1        0.1028
     11 N           2.5830    7.9159    3.8058 N.4     4  LIG4        0.2099
     12 N           3.9660    0.6158    2.0802 N.4     5  LIG5        0.2099
     13 N           4.1813    4.5672    2.1042 N.4     6  LIG6        0.2099
     14 H           3.2000    3.1771    7.0244 H       1  LIG1        0.0456
     15 H           4.4569    3.9689    6.7896 H       1  LIG1        0.0456
     16 H           2.4030    8.5835    4.3264 H       1  LIG1        0.1975
     17 H           2.7455    7.1065    4.3859 H       1  LIG1        0.1975
     18 H           1.8578    7.7753    3.2993 H       1  LIG1        0.1975
     19 H           3.2892    8.1750    3.3913 H       1  LIG1        0.1975
     20 H           3.8584    1.2893    1.5181 H       2  HOH2        0.1975
     21 H           3.8148    1.0114    2.8296 H       2  HOH2        0.1975
     22 H           3.3807    0.0384    1.9340 H       2  HOH2        0.1975
     23 H           4.7748    0.2713    2.0599 H       2  HOH2        0.1975
     24 H           4.2352    4.0029    1.4205 H       3  HOH3        0.1975
     25 H           4.5931    4.2270    2.8833 H       3  HOH3        0.1975
     26 H           4.6221    5.3252    1.8039 H       3  HOH3        0.1975
     27 H           3.3142    4.6728    2.2693 H       3  HOH3        0.1975
     28 H          -0.2312    2.4775    6.8320 H       0  HOH0        0.2052
     29 H           0.8162    3.1980    6.6707 H       0  HOH0        0.2052
     30 H           4.7843    0.8533    7.9073 H       0  HOH0        0.2052
     31 H           4.3707   -0.0000    8.9188 H       0  HOH0        0.2052
@<TRIPOS>BOND
     1    24    13    1
     2    20    12    1
     3    26    13    1
     4    22    12    1
     5    23    12    1
     6    12    21    1
     7    13    27    1
     8    13    25    1
     9    18    11    1
    10    19    11    1
    11    11    16    1
    12    11    17    1
    13     2     1    2
    14     4     1    1
    15     6     9   ar
    16     1     3    1
    17     1    10    1
    18     5     9   ar
    19     9    10    1
    20    10    15    1
    21    10    14    1
    22    29     7    1
    23    28     7    1
    24    30     8    1
    25     8    31    1
