@<TRIPOS>MOLECULE
?
 56 57 0 0 0
SMALL
GASTEIGER

@<TRIPOS>ATOM
      1 O          -3.5022   -0.1554   -1.6793 O.3     1  LIG1       -0.4596
      2 O          -3.3569   -2.9780   -1.1995 O.3     1  LIG1       -0.4513
      3 O          -1.1183   -2.8957   -1.0725 O.2     1  LIG1       -0.2512
      4 O          -3.1522   -3.4501    1.6687 O.3     1  LIG1       -0.4537
      5 O          -4.2951   -5.3289    1.1836 O.2     1  LIG1       -0.2512
      6 O          -5.4630   -2.2000    3.0089 O.3     1  LIG1       -0.4549
      7 O          -3.9791   -1.8538    4.6592 O.2     1  LIG1       -0.2512
      8 O          -4.5429    0.0875    0.3392 O.3     1  LIG1       -0.3282
      9 O          -6.6872    1.4866    1.3624 O.3     1  LIG1       -0.4621
     10 O          -8.2218    1.7200    2.9548 O.2     1  LIG1       -0.2512
     11 O          -4.9932    4.0963   -5.9984 O.2     1  LIG1       -0.1261
     12 O          -6.6100    4.4258   -4.6119 O.2     1  LIG1       -0.1261
     13 N          -5.6003    3.8425   -4.9607 N.pl3   1  LIG1        0.0564
     14 C          -4.2997   -0.8158   -0.7256 C.3     1  LIG1        0.2432
     15 H          -5.1511   -1.0884   -1.1460 H       1  LIG1        0.1097
     16 C          -3.4859   -1.9768   -0.1768 C.3     1  LIG1        0.2048
     17 H          -2.6157   -1.6581    0.0029 H       1  LIG1        0.0837
     18 C          -4.1470   -2.6165    1.0348 C.3     1  LIG1        0.1848
     19 H          -4.9095   -3.1690    0.7856 H       1  LIG1        0.0813
     20 C          -4.6036   -1.5685    2.0417 C.3     1  LIG1        0.1726
     21 H          -3.8661   -1.1545    2.4803 H       1  LIG1        0.0801
     22 C          -5.4106   -0.4998    1.3160 C.3     1  LIG1        0.1371
     23 H          -6.1847   -0.8579    0.8696 H       1  LIG1        0.0670
     24 C          -5.9081    0.6007    2.2001 C.3     1  LIG1        0.1223
     25 H          -5.1885    1.0862    2.5673 H       1  LIG1        0.0725
     26 H          -6.4394    0.2497    2.9171 H       1  LIG1        0.0725
     27 C          -4.1067    0.8118   -2.4620 C.ar    1  LIG1        0.1242
     28 C          -3.3941    1.1677   -3.5973 C.ar    1  LIG1       -0.0177
     29 H          -2.6114    0.7085   -3.8476 H       1  LIG1        0.0655
     30 C          -3.8867    2.1722   -4.4263 C.ar    1  LIG1       -0.0280
     31 H          -3.3824    2.3752   -5.2032 H       1  LIG1        0.0641
     32 C          -5.0802    2.7693   -4.1007 C.ar    1  LIG1        0.1264
     33 C          -5.7960    2.4277   -2.9780 C.ar    1  LIG1       -0.0280
     34 H          -6.6434    2.8596   -2.7335 H       1  LIG1        0.0641
     35 C          -5.3098    1.4287   -2.1402 C.ar    1  LIG1       -0.0177
     36 H          -5.7659    1.2079   -1.3595 H       1  LIG1        0.0655
     37 C          -2.1103   -3.3613   -1.5614 C.2     1  LIG1        0.3045
     38 C          -2.1529   -4.3982   -2.6262 C.3     1  LIG1        0.0332
     39 H          -2.2321   -3.9202   -3.4630 H       1  LIG1        0.0342
     40 H          -2.9819   -4.9723   -2.4803 H       1  LIG1        0.0342
     41 H          -1.2795   -4.8101   -2.6620 H       1  LIG1        0.0342
     42 C          -3.3261   -4.7853    1.6532 C.2     1  LIG1        0.3044
     43 C          -2.1730   -5.4802    2.2968 C.3     1  LIG1        0.0332
     44 H          -1.2652   -5.2284    1.9702 H       1  LIG1        0.0342
     45 H          -2.2554   -5.4354    3.2562 H       1  LIG1        0.0342
     46 H          -2.2975   -6.4618    2.1451 H       1  LIG1        0.0342
     47 C          -5.0513   -2.2392    4.3007 C.2     1  LIG1        0.3044
     48 C          -6.1103   -2.8276    5.1704 C.3     1  LIG1        0.0332
     49 H          -5.8649   -2.6441    6.1028 H       1  LIG1        0.0342
     50 H          -6.0955   -3.7986    5.0129 H       1  LIG1        0.0342
     51 H          -6.9687   -2.5779    4.8969 H       1  LIG1        0.0342
     52 C          -7.8173    1.9851    1.8668 C.2     1  LIG1        0.3040
     53 C          -8.4812    2.8980    0.8889 C.3     1  LIG1        0.0332
     54 H          -9.3472    3.2736    1.2580 H       1  LIG1        0.0342
     55 H          -7.8042    3.5702    0.5459 H       1  LIG1        0.0342
     56 H          -8.6351    2.4797    0.0870 H       1  LIG1        0.0342
@<TRIPOS>BOND
     1    11    13    2
     2    31    30    1
     3    13    12    2
     4    13    32    1
     5    30    32   ar
     6    30    28   ar
     7    32    33   ar
     8    29    28    1
     9    28    27   ar
    10    39    38    1
    11    33    34    1
    12    33    35   ar
    13    41    38    1
    14    38    40    1
    15    38    37    1
    16    27    35   ar
    17    27     1    1
    18    35    36    1
    19     1    14    1
    20    37     2    1
    21    37     3    2
    22     2    16    1
    23    15    14    1
    24    14    16    1
    25    14     8    1
    26    16    17    1
    27    16    18    1
    28    56    53    1
    29     8    22    1
    30    55    53    1
    31    19    18    1
    32    23    22    1
    33    53    54    1
    34    53    52    1
    35    18     4    1
    36    18    20    1
    37     5    42    2
    38    22    20    1
    39    22    24    1
    40     9    52    1
    41     9    24    1
    42    42     4    1
    43    42    43    1
    44    52    10    2
    45    44    43    1
    46    20    21    1
    47    20     6    1
    48    46    43    1
    49    24    25    1
    50    24    26    1
    51    43    45    1
    52     6    47    1
    53    47     7    2
    54    47    48    1
    55    51    48    1
    56    50    48    1
    57    48    49    1
