@<TRIPOS>MOLECULE
3,4-bis-(2-benzothiazolyl)furan
 33 37 0 0 0
SMALL
GASTEIGER

@<TRIPOS>ATOM
      1 S           5.8412   -0.0253   10.4799 S.2     1  LIG1       -0.0671
      2 S           4.1068    0.5463    5.7958 S.2     1  LIG1       -0.0671
      3 N           8.1664   -1.1432   10.2210 N.ar    1  LIG1       -0.2389
      4 N           4.6696    1.3694    8.1866 N.ar    1  LIG1       -0.2389
      5 O           8.4928   -0.2800    6.1469 O.2     1  LIG1       -0.4697
      6 C           8.5639   -0.5817    7.4712 C.ar    1  LIG1        0.1020
      7 H           9.3085   -0.9581    7.8812 H       1  LIG1        0.1036
      8 C           7.4148   -0.2667    8.1185 C.ar    1  LIG1        0.0545
      9 C           6.5436    0.2671    7.0873 C.ar    1  LIG1        0.0545
     10 C           7.2560    0.2270    5.9445 C.ar    1  LIG1        0.1020
     11 H           6.9355    0.5118    5.1192 H       1  LIG1        0.1036
     12 C           7.2359   -0.5110    9.5510 C.ar    1  LIG1        0.1131
     13 C           6.5535   -0.7375   11.8838 C.ar    1  LIG1        0.0395
     14 C           7.7989   -1.2846   11.5505 C.ar    1  LIG1        0.0789
     15 C           8.5608   -1.9049   12.5328 C.ar    1  LIG1       -0.0352
     16 H           9.4002   -2.2519   12.3322 H       1  LIG1        0.0639
     17 C           8.0532   -1.9952   13.7960 C.ar    1  LIG1       -0.0597
     18 H           8.5433   -2.4415   14.4486 H       1  LIG1        0.0618
     19 C           6.8324   -1.4425   14.1345 C.ar    1  LIG1       -0.0606
     20 H           6.5315   -1.4951   15.0122 H       1  LIG1        0.0618
     21 C           6.0584   -0.8142   13.1836 C.ar    1  LIG1       -0.0459
     22 H           5.2304   -0.4519   13.4017 H       1  LIG1        0.0629
     23 C           5.1750    0.7584    7.1781 C.ar    1  LIG1        0.1131
     24 C           2.8712    1.3573    6.6703 C.ar    1  LIG1        0.0395
     25 C           3.3471    1.7285    7.9370 C.ar    1  LIG1        0.0789
     26 C           2.5393    2.4118    8.8234 C.ar    1  LIG1       -0.0352
     27 H           2.8570    2.6633    9.6609 H       1  LIG1        0.0639
     28 C           1.2455    2.7131    8.4361 C.ar    1  LIG1       -0.0597
     29 H           0.6873    3.1722    9.0206 H       1  LIG1        0.0618
     30 C           0.7744    2.3411    7.1938 C.ar    1  LIG1       -0.0606
     31 H          -0.1004    2.5524    6.9582 H       1  LIG1        0.0618
     32 C           1.5622    1.6679    6.2952 C.ar    1  LIG1       -0.0459
     33 H           1.2340    1.4248    5.4594 H       1  LIG1        0.0629
@<TRIPOS>BOND
     1    11    10    1
     2    33    32    1
     3     2    24   ar
     4     2    23   ar
     5    10     5   ar
     6    10     9   ar
     7     5     6   ar
     8    32    24   ar
     9    32    30   ar
    10    24    25   ar
    11    31    30    1
    12     9    23    1
    13     9     8   ar
    14    23     4   ar
    15    30    28   ar
    16     6     7    1
    17     6     8   ar
    18    25     4   ar
    19    25    26   ar
    20     8    12    1
    21    28    26   ar
    22    28    29    1
    23    26    27    1
    24    12     3   ar
    25    12     1   ar
    26     3    14   ar
    27     1    13   ar
    28    14    13   ar
    29    14    15   ar
    30    13    21   ar
    31    16    15    1
    32    15    17   ar
    33    21    22    1
    34    21    19   ar
    35    17    19   ar
    36    17    18    1
    37    19    20    1
