@<TRIPOS>MOLECULE
1-O-benzyl-\b-L-arabinopyranose
 33 34 0 0 0
SMALL
GASTEIGER

@<TRIPOS>ATOM
      1 O           3.8177    2.6199   20.6359 O.3     1  LIG1       -0.3441
      2 O           4.0461    2.9731   17.8522 O.3     1  LIG1       -0.3841
      3 O           5.9793    5.0235   18.0408 O.3     1  LIG1       -0.3864
      4 O           4.4228    6.8988   19.4800 O.3     1  LIG1       -0.3869
      5 O           2.9085    4.7710   20.8491 O.3     1  LIG1       -0.3461
      6 C           3.1030    3.6500   20.0029 C.3     1  LIG1        0.1879
      7 C           3.8897    4.0571   18.7599 C.3     1  LIG1        0.1341
      8 C           5.2376    4.6150   19.1844 C.3     1  LIG1        0.1137
      9 C           5.0250    5.7875   20.1437 C.3     1  LIG1        0.1069
     10 C           4.1480    5.3397   21.3029 C.3     1  LIG1        0.0792
     11 C           3.0708    1.9357   21.6345 C.3     1  LIG1        0.0758
     12 C           3.9928    1.1113   22.4966 C.ar    1  LIG1       -0.0218
     13 C           5.2300    0.6970   22.0465 C.ar    1  LIG1       -0.0564
     14 C           6.0179   -0.1348   22.8324 C.ar    1  LIG1       -0.0614
     15 C           5.5751   -0.5466   24.0668 C.ar    1  LIG1       -0.0617
     16 C           4.3513   -0.1128   24.5403 C.ar    1  LIG1       -0.0614
     17 C           3.5640    0.7101   23.7646 C.ar    1  LIG1       -0.0564
     18 H           2.2284    3.3052   19.7251 H       1  LIG1        0.0937
     19 H           3.3935    4.7686   18.3045 H       1  LIG1        0.0671
     20 H           5.7379    3.9131   19.6495 H       1  LIG1        0.0647
     21 H           5.8955    6.0661   20.4975 H       1  LIG1        0.0643
     22 H           4.6272    4.6820   21.8304 H       1  LIG1        0.0587
     23 H           3.9600    6.1013   21.8743 H       1  LIG1        0.0587
     24 H           2.4153    1.3580   21.2139 H       1  LIG1        0.0611
     25 H           2.5974    2.5779   22.1862 H       1  LIG1        0.0611
     26 H           5.5370    0.9756   21.2139 H       1  LIG1        0.0621
     27 H           6.8492   -0.4135   22.5224 H       1  LIG1        0.0618
     28 H           6.0982   -1.1170   24.5814 H       1  LIG1        0.0618
     29 H           4.0590   -0.3767   25.3831 H       1  LIG1        0.0618
     30 H           2.7415    1.0009   24.0868 H       1  LIG1        0.0621
     31 H           4.6395    2.2960   18.2021 H       1  LIG1        0.2101
     32 H           6.3149    4.2816   17.5978 H       1  LIG1        0.2100
     33 H           3.7023    6.8636   19.4156 H       1  LIG1        0.2100
@<TRIPOS>BOND
     1    32     3    1
     2     2    31    1
     3     2     7    1
     4     3     8    1
     5    19     7    1
     6     7     8    1
     7     7     6    1
     8     8    20    1
     9     8     9    1
    10    33     4    1
    11     4     9    1
    12    18     6    1
    13     6     1    1
    14     6     5    1
    15     9    21    1
    16     9    10    1
    17     1    11    1
    18     5    10    1
    19    26    13    1
    20    24    11    1
    21    10    22    1
    22    10    23    1
    23    11    25    1
    24    11    12    1
    25    13    12   ar
    26    13    14   ar
    27    12    17   ar
    28    27    14    1
    29    14    15   ar
    30    17    30    1
    31    17    16   ar
    32    15    16   ar
    33    15    28    1
    34    16    29    1
