@<TRIPOS>MOLECULE
1-phenyl-4-imidazolidinone (Z)-oxime
 24 25 0 0 0
SMALL
GASTEIGER

@<TRIPOS>ATOM
      1 O           6.0240    0.3467    4.1354 O.3     1  LIG1       -0.2938
      2 H           6.6934    0.0573    3.6964 H       1  LIG1        0.2384
      3 N           3.9731    1.4771    5.2683 N.3     1  LIG1       -0.2761
      4 C           2.7656    2.1854    5.7016 C.3     1  LIG1        0.0646
      5 H           2.0089    1.6001    5.7734 H       1  LIG1        0.0632
      6 H           2.9077    2.6306    6.5414 H       1  LIG1        0.0632
      7 N           2.5967    3.1300    4.6162 N.pl3   1  LIG1       -0.3137
      8 H           3.8436    0.7782    5.6715 H       1  LIG1        0.1254
      9 C           3.5357    2.9491    3.5400 C.3     1  LIG1        0.0520
     10 H           4.0487    3.7489    3.3975 H       1  LIG1        0.0498
     11 H           3.0927    2.7034    2.7245 H       1  LIG1        0.0498
     12 N           5.4106    1.3967    3.4033 N.4     1  LIG1       -0.0715
     13 C           4.3974    1.8338    4.0729 C.3     1  LIG1        0.1684
     14 C           1.5314    3.9840    4.5478 C.ar    1  LIG1        0.0307
     15 C           1.3252    4.8431    3.4601 C.ar    1  LIG1       -0.0406
     16 H           1.9344    4.8331    2.7187 H       1  LIG1        0.0636
     17 C           0.2523    5.7274    3.4439 C.ar    1  LIG1       -0.0600
     18 H           0.1359    6.3106    2.6909 H       1  LIG1        0.0618
     19 C          -0.6427    5.7776    4.4911 C.ar    1  LIG1       -0.0616
     20 H          -1.3634    6.4096    4.4899 H       1  LIG1        0.0618
     21 C          -0.4771    4.9034    5.5394 C.ar    1  LIG1       -0.0600
     22 H          -1.1162    4.8884    6.2564 H       1  LIG1        0.0618
     23 C           0.5863    4.0443    5.5938 C.ar    1  LIG1       -0.0406
     24 H           0.6952    3.4625    6.3503 H       1  LIG1        0.0636
@<TRIPOS>BOND
     1    18    17    1
     2    16    15    1
     3    11     9    1
     4    10     9    1
     5    12    13    1
     6    12     1    1
     7    17    15   ar
     8    17    19   ar
     9    15    14   ar
    10     9    13    1
    11     9     7    1
    12     2     1    1
    13    13     3    1
    14    20    19    1
    15    19    21   ar
    16    14     7    1
    17    14    23   ar
    18     7     4    1
    19     3     8    1
    20     3     4    1
    21    21    23   ar
    22    21    22    1
    23    23    24    1
    24     4     5    1
    25     4     6    1
