@<TRIPOS>MOLECULE
Diethyl 3,4-di(ethoxycarbonyl)-(2Z,4Z)-hexa-2,4-diene-1,6-dioate
 23 22 0 0 0
SMALL
GASTEIGER

@<TRIPOS>ATOM
      1 C           0.1708    0.7155    0.0571 C.2     1  LIG1        0.0799
      2 C          -0.2449    1.4794    1.0703 C.2     1  LIG1        0.0372
      3 C           0.1146    2.9206    1.1619 C.2     1  LIG1        0.3327
      4 O           0.6579    3.5635    0.3131 O.2     1  LIG1       -0.2456
      5 O          -0.2276    3.3873    2.3628 O.3     1  LIG1       -0.4618
      6 C           0.0122    4.8098    2.5886 C.3     1  LIG1        0.0900
      7 C          -0.0862    5.0498    4.0417 C.3     1  LIG1       -0.0306
      8 C           1.0152    1.2754   -1.0754 C.2     1  LIG1        0.3402
      9 O           0.5752    1.6265   -2.1294 O.2     1  LIG1       -0.2449
     10 O           2.2957    1.2525   -0.7272 O.3     1  LIG1       -0.4614
     11 C           3.2370    1.7537   -1.7511 C.3     1  LIG1        0.0900
     12 C           4.5379    1.3808   -1.3972 C.3     1  LIG1       -0.0306
     13 H          -0.7843    1.0929    1.7498 H       1  LIG1        0.0697
     14 H          -0.7253    5.3996    2.0641 H       1  LIG1        0.0695
     15 H           0.9951    5.0815    2.2329 H       1  LIG1        0.0695
     16 H           0.6557    4.4540    4.5524 H       1  LIG1        0.0262
     17 H           0.0879    6.0969    4.2424 H       1  LIG1        0.0262
     18 H          -1.0723    4.7732    4.3830 H       1  LIG1        0.0262
     19 H           3.1704    2.8296   -1.8119 H       1  LIG1        0.0695
     20 H           2.9866    1.3322   -2.7135 H       1  LIG1        0.0695
     21 H           4.5975    0.3038   -1.3414 H       1  LIG1        0.0262
     22 H           5.2293    1.7451   -2.1426 H       1  LIG1        0.0262
     23 H           4.7822    1.8079   -0.4354 H       1  LIG1        0.0262
@<TRIPOS>BOND
     1    20    11    1
     2    22    12    1
     3     9     8    2
     4    19    11    1
     5    11    12    1
     6    11    10    1
     7    12    21    1
     8    12    23    1
     9     8    10    1
    10     8     1    1
    11     1     2    2
    12     4     3    2
    13     2     3    1
    14     2    13    1
    15     3     5    1
    16    14     6    1
    17    15     6    1
    18     5     6    1
    19     6     7    1
    20     7    17    1
    21     7    18    1
    22     7    16    1
