@<TRIPOS>MOLECULE
1,2-di(o-methyl-phenyl)-3,3-(oxydiethyl)-guanidine hydrochloride  monohydrate
 51 51 0 0 0
SMALL
GASTEIGER

@<TRIPOS>ATOM
      1 CL         -2.3126    5.8842    3.5974 Cl      1  LIG1        0.0000
      2 O          -6.9068    1.1722    2.5559 O.3     2  HOH2       -0.4105
      3 H          -6.9266    0.3651    3.1697 H       0  HOH0        0.2052
      4 H          -5.8793    1.2711    2.2434 H       0  HOH0        0.2052
      5 C          -0.0473    1.5534    7.1275 C.ar    3  LIG3        0.0326
      6 C           1.2675    1.4164    7.5295 C.ar    3  LIG3       -0.0405
      7 H           1.9724    1.1862    6.8581 H       3  LIG3        0.0636
      8 C           1.6140    1.5968    8.8581 C.ar    3  LIG3       -0.0600
      9 H           2.5643    1.4905    9.1508 H       3  LIG3        0.0618
     10 C           0.6403    1.9229    9.7697 C.ar    3  LIG3       -0.0614
     11 H           0.8863    2.0753   10.7268 H       3  LIG3        0.0618
     12 C          -0.6742    2.0414    9.3744 C.ar    3  LIG3       -0.0571
     13 H          -1.3688    2.2742   10.0550 H       3  LIG3        0.0621
     14 C          -1.0608    1.8446    8.0476 C.ar    3  LIG3       -0.0295
     15 C          -2.5141    1.8791    7.6614 C.3     3  LIG3       -0.0380
     16 H          -2.7737    1.0006    7.2591 H       3  LIG3        0.0278
     17 H          -2.6643    2.6092    6.9931 H       3  LIG3        0.0278
     18 H          -3.0713    2.0522    8.4725 H       3  LIG3        0.0278
     19 C           0.4176    4.0998    5.7009 C.ar    3  LIG3        0.0326
     20 C           1.6652    3.7704    5.1915 C.ar    3  LIG3       -0.0405
     21 H           1.7417    3.1350    4.4233 H       3  LIG3        0.0636
     22 C           2.8063    4.3254    5.7516 C.ar    3  LIG3       -0.0600
     23 H           3.7112    4.0854    5.4001 H       3  LIG3        0.0618
     24 C           2.6756    5.2126    6.8010 C.ar    3  LIG3       -0.0614
     25 H           3.4939    5.6140    7.2122 H       3  LIG3        0.0618
     26 C           1.4363    5.5514    7.2872 C.ar    3  LIG3       -0.0571
     27 H           1.3692    6.2016    8.0436 H       3  LIG3        0.0621
     28 C           0.2653    5.0049    6.7467 C.ar    3  LIG3       -0.0295
     29 C          -1.0783    5.3929    7.2834 C.3     3  LIG3       -0.0380
     30 H          -0.9606    6.0154    8.0572 H       3  LIG3        0.0278
     31 H          -1.5658    4.5741    7.5852 H       3  LIG3        0.0278
     32 H          -1.6040    5.8496    6.5648 H       3  LIG3        0.0278
     33 N          -0.3667    1.3103    5.7523 N.pl3   3  LIG3       -0.3067
     34 H          -0.1656    0.4212    5.3927 H       3  LIG3        0.1495
     35 C          -0.9184    2.2004    4.9209 C.3     3  LIG3        0.2098
     36 N          -0.7529    3.5130    5.0976 N.pl3   3  LIG3       -0.3067
     37 H          -1.4688    4.1125    4.8001 H       3  LIG3        0.1495
     38 N          -1.6769    1.7523    3.9170 N.3     3  LIG3       -0.2580
     39 C          -1.9103    2.4771    2.6619 C.3     3  LIG3        0.0259
     40 H          -1.4878    1.9835    1.9021 H       3  LIG3        0.0450
     41 H          -1.4968    3.3860    2.7139 H       3  LIG3        0.0450
     42 C          -3.3860    2.6042    2.4256 C.3     3  LIG3        0.0605
     43 H          -3.7905    3.1690    3.1447 H       3  LIG3        0.0572
     44 H          -3.5450    3.0582    1.5488 H       3  LIG3        0.0572
     45 O          -4.0134    1.3222    2.4180 O.3     3  LIG3       -0.3772
     46 C          -3.7963    0.6472    3.6578 C.3     3  LIG3        0.0605
     47 H          -4.2561   -0.2400    3.6360 H       3  LIG3        0.0572
     48 H          -4.1965    1.1839    4.4007 H       3  LIG3        0.0572
     49 C          -2.3322    0.4420    3.9267 C.3     3  LIG3        0.0259
     50 H          -2.2049    0.0016    4.8155 H       3  LIG3        0.0450
     51 H          -1.9330   -0.1460    3.2230 H       3  LIG3        0.0450
@<TRIPOS>BOND
     1    44    42    1
     2    40    39    1
     3     4     2    1
     4    45    42    1
     5    45    46    1
     6    42    39    1
     7    42    43    1
     8     2     3    1
     9    39    41    1
    10    39    38    1
    11    51    49    1
    12    47    46    1
    13    46    49    1
    14    46    48    1
    15    38    49    1
    16    38    35    1
    17    49    50    1
    18    21    20    1
    19    37    36    1
    20    35    36    1
    21    35    33    1
    22    36    19    1
    23    20    19   ar
    24    20    22   ar
    25    34    33    1
    26    23    22    1
    27    19    28   ar
    28    22    24   ar
    29    33     5    1
    30    32    29    1
    31    28    29    1
    32    28    26   ar
    33    24    25    1
    34    24    26   ar
    35     7     6    1
    36    17    15    1
    37     5     6   ar
    38     5    14   ar
    39    16    15    1
    40    29    31    1
    41    29    30    1
    42    26    27    1
    43     6     8   ar
    44    15    14    1
    45    15    18    1
    46    14    12   ar
    47     8     9    1
    48     8    10   ar
    49    12    10   ar
    50    12    13    1
    51    10    11    1
