@<TRIPOS>MOLECULE
(3S,5S,1'S)-3-benzyl-5-[1'-(tert-butoxycarbonylamino)-  -2'-phenylethyl]-4,5-dihydrofuran-2(3H)-one
 58 60 0 0 0
SMALL
GASTEIGER

@<TRIPOS>ATOM
      1 O           1.5316    7.5794    5.9774 O.3     1  LIG1       -0.4592
      2 O          -0.1624    3.7191    7.9617 O.3     1  LIG1       -0.4447
      3 O          -0.0595    9.1320    6.0382 O.2     1  LIG1       -0.2505
      4 O           1.8329    4.1132    8.9642 O.2     1  LIG1       -0.2265
      5 N           1.3654    4.8627    6.8859 N.am    1  LIG1       -0.2744
      6 H           0.8933    4.7112    6.2756 H       1  LIG1        0.1524
      7 C           0.8215    8.5408    6.6030 C.2     1  LIG1        0.3110
      8 C           1.2823    8.7014    8.0272 C.3     1  LIG1        0.0638
      9 H           1.8404    9.4680    8.0289 H       1  LIG1        0.0418
     10 C           2.0765    7.4336    8.2711 C.3     1  LIG1       -0.0007
     11 H           1.4873    6.7365    8.6097 H       1  LIG1        0.0309
     12 H           2.8083    7.5567    8.8632 H       1  LIG1        0.0309
     13 C           2.5354    7.0213    6.8834 C.3     1  LIG1        0.1224
     14 H           3.3324    7.4598    6.6749 H       1  LIG1        0.0753
     15 C           2.6365    5.5257    6.6559 C.3     1  LIG1        0.0671
     16 H           3.2654    5.2569    7.3445 H       1  LIG1        0.0539
     17 C           3.1586    5.1680    5.2575 C.3     1  LIG1       -0.0056
     18 H           3.1199    4.2305    5.2195 H       1  LIG1        0.0332
     19 H           2.5354    5.5986    4.6217 H       1  LIG1        0.0332
     20 C           4.5807    5.6111    5.0271 C.ar    1  LIG1       -0.0455
     21 C           4.8867    6.6499    4.1824 C.ar    1  LIG1       -0.0585
     22 H           4.1709    7.1136    3.7388 H       1  LIG1        0.0620
     23 C           6.2030    7.0407    3.9922 C.ar    1  LIG1       -0.0615
     24 H           6.3749    7.7640    3.3564 H       1  LIG1        0.0618
     25 C           7.2049    6.4039    4.6703 C.ar    1  LIG1       -0.0617
     26 H           8.1209    6.6591    4.5879 H       1  LIG1        0.0618
     27 C           6.9188    5.3662    5.5004 C.ar    1  LIG1       -0.0615
     28 H           7.6025    4.8548    5.9630 H       1  LIG1        0.0618
     29 C           5.6147    4.9744    5.6736 C.ar    1  LIG1       -0.0585
     30 H           5.4353    4.2659    6.2228 H       1  LIG1        0.0620
     31 C           1.0831    4.2100    8.0212 C.2     1  LIG1        0.4011
     32 C          -0.7554    2.9787    9.0702 C.3     1  LIG1        0.1068
     33 C           0.0378    1.7280    9.3723 C.3     1  LIG1       -0.0253
     34 H          -0.4372    1.1482   10.0292 H       1  LIG1        0.0268
     35 H           0.9906    2.0025    9.6279 H       1  LIG1        0.0268
     36 H          -0.1483    1.3008    8.4070 H       1  LIG1        0.0268
     37 C          -2.1369    2.6837    8.5464 C.3     1  LIG1       -0.0253
     38 H          -2.6034    3.5835    8.2950 H       1  LIG1        0.0268
     39 H          -2.5505    2.1699    9.0491 H       1  LIG1        0.0268
     40 H          -1.9471    2.0857    7.7585 H       1  LIG1        0.0268
     41 C          -0.8366    3.8706   10.2848 C.3     1  LIG1       -0.0253
     42 H           0.0850    4.1907   10.6143 H       1  LIG1        0.0268
     43 H          -1.3730    4.7397    9.9130 H       1  LIG1        0.0268
     44 H          -1.2937    3.3785   10.8636 H       1  LIG1        0.0268
     45 C           0.1237    8.9486    8.9688 C.3     1  LIG1       -0.0146
     46 H          -0.4457    8.2686    8.8104 H       1  LIG1        0.0321
     47 H          -0.2984    9.8303    8.7111 H       1  LIG1        0.0321
     48 C           0.5241    8.9475   10.4263 C.ar    1  LIG1       -0.0466
     49 C           0.3107    7.8699   11.2332 C.ar    1  LIG1       -0.0586
     50 H          -0.1416    7.1830   10.8657 H       1  LIG1        0.0620
     51 C           0.6912    7.8995   12.5640 C.ar    1  LIG1       -0.0615
     52 H           0.5902    7.1933   13.0667 H       1  LIG1        0.0618
     53 C           1.2786    8.9885   13.0963 C.ar    1  LIG1       -0.0617
     54 H           1.5666    8.9623   14.0341 H       1  LIG1        0.0618
     55 C           1.4929   10.0638   12.3189 C.ar    1  LIG1       -0.0615
     56 H           1.8433   10.9090   12.6632 H       1  LIG1        0.0618
     57 C           1.1294   10.0399   10.9945 C.ar    1  LIG1       -0.0586
     58 H           1.2427   10.7654   10.4643 H       1  LIG1        0.0620
@<TRIPOS>BOND
     1    24    23    1
     2    22    21    1
     3    23    21   ar
     4    23    25   ar
     5    21    20   ar
     6    26    25    1
     7    19    17    1
     8    25    27   ar
     9    20    17    1
    10    20    29   ar
    11    18    17    1
    12    17    15    1
    13    27    29   ar
    14    27    28    1
    15    29    30    1
    16     1     7    1
    17     1    13    1
    18     3     7    2
    19     6     5    1
    20     7     8    1
    21    15    13    1
    22    15     5    1
    23    15    16    1
    24    14    13    1
    25    13    10    1
    26     5    31   am
    27    40    37    1
    28     2    31    1
    29     2    32    1
    30    31     4    2
    31     8     9    1
    32     8    10    1
    33     8    45    1
    34    10    11    1
    35    10    12    1
    36    38    37    1
    37    36    33    1
    38    37    39    1
    39    37    32    1
    40    47    45    1
    41    46    45    1
    42    45    48    1
    43    32    33    1
    44    32    41    1
    45    33    35    1
    46    33    34    1
    47    43    41    1
    48    41    42    1
    49    41    44    1
    50    48    57   ar
    51    48    49   ar
    52    58    57    1
    53    50    49    1
    54    57    55   ar
    55    49    51   ar
    56    55    56    1
    57    55    53   ar
    58    51    52    1
    59    51    53   ar
    60    53    54    1
