@<TRIPOS>MOLECULE
N-butylthiophen-3-carboxamide
 25 25 0 0 0
SMALL
GASTEIGER

@<TRIPOS>ATOM
      1 S           0.3193    5.1973    0.0140 S.2     1  LIG1       -0.1043
      2 C           0.6320    4.0545    1.2295 C.ar    1  LIG1       -0.0122
      3 C          -0.4755    3.2729    1.4971 C.ar    1  LIG1        0.0437
      4 C          -1.5839    3.6438    0.6891 C.ar    1  LIG1       -0.0426
      5 C          -1.2980    4.7095   -0.2060 C.ar    1  LIG1       -0.0236
      6 H          -1.9087    5.0888   -0.8261 H       1  LIG1        0.0693
      7 C          -0.5639    2.2016    2.5154 C.2     1  LIG1        0.2446
      8 O          -1.6666    1.6892    2.7904 O.2     1  LIG1       -0.2702
      9 N           0.5737    1.8168    3.1121 N.am    1  LIG1       -0.3113
     10 C           0.6456    0.7956    4.1558 C.3     1  LIG1        0.0119
     11 C           1.3262   -0.4727    3.6738 C.3     1  LIG1       -0.0376
     12 C           0.6019   -1.2063    2.5515 C.3     1  LIG1       -0.0545
     13 H           0.4405   -0.6013    1.8369 H       1  LIG1        0.0263
     14 H           1.1648   -1.8964    2.2212 H       1  LIG1        0.0263
     15 C          -0.7234   -1.8205    2.9857 C.3     1  LIG1       -0.0652
     16 H          -1.3321   -1.1101    3.2703 H       1  LIG1        0.0230
     17 H          -0.5678   -2.4422    3.7375 H       1  LIG1        0.0230
     18 H          -1.1201   -2.3127    2.2297 H       1  LIG1        0.0230
     19 H           1.3029    2.2109    2.8880 H       1  LIG1        0.1490
     20 H           1.4293    4.0980    1.6458 H       1  LIG1        0.0701
     21 H          -2.4600    3.1915    0.6477 H       1  LIG1        0.0630
     22 H           1.1279    1.2766    4.9479 H       1  LIG1        0.0462
     23 H          -0.2139    0.6013    4.3852 H       1  LIG1        0.0462
     24 H           1.4099   -1.0453    4.4595 H       1  LIG1        0.0280
     25 H           2.0808   -0.2405    3.3446 H       1  LIG1        0.0280
@<TRIPOS>BOND
     1     6     5    1
     2     5     1   ar
     3     5     4   ar
     4     1     2   ar
     5    21     4    1
     6     4     3   ar
     7     2     3   ar
     8     2    20    1
     9     3     7    1
    10    13    12    1
    11    14    12    1
    12    18    15    1
    13     7     8    2
    14     7     9   am
    15    12    15    1
    16    12    11    1
    17    19     9    1
    18    15    16    1
    19    15    17    1
    20     9    10    1
    21    25    11    1
    22    11    10    1
    23    11    24    1
    24    10    23    1
    25    10    22    1
