@<TRIPOS>MOLECULE
?
 30 30 0 0 0
SMALL
GASTEIGER

@<TRIPOS>ATOM
      1 O           4.2360    1.7028   15.4394 O.3     1  LIG1       -0.4804
      2 O           4.8311    0.3651   17.0859 O.2     1  LIG1       -0.2507
      3 O          12.5440   -0.9846   17.0753 O.3     1  LIG1       -0.4804
      4 O          11.8881    0.4203   15.4843 O.2     1  LIG1       -0.2507
      5 O           6.0254   -2.4796   11.1890 O.3     1  LIG1       -0.4804
      6 O           5.2067   -1.2686   12.8471 O.2     1  LIG1       -0.2507
      7 C           7.3762    0.9126   15.4968 C.ar    1  LIG1       -0.0362
      8 C           8.4536    0.3282   16.1389 C.ar    1  LIG1       -0.0543
      9 C           9.2456   -0.6185   15.5072 C.ar    1  LIG1       -0.0362
     10 C           8.9273   -0.9788   14.2115 C.ar    1  LIG1       -0.0543
     11 C           7.8549   -0.4213   13.5325 C.ar    1  LIG1       -0.0362
     12 C           7.0985    0.5403   14.1903 C.ar    1  LIG1       -0.0543
     13 C           6.4551    1.8779   16.2093 C.3     1  LIG1        0.0699
     14 C          10.3759   -1.2758   16.2455 C.3     1  LIG1        0.0699
     15 C           7.4660   -0.8857   12.1534 C.3     1  LIG1        0.0699
     16 C           5.0887    1.2652   16.2916 C.2     1  LIG1        0.3091
     17 C          11.6759   -0.5230   16.2310 C.2     1  LIG1        0.3091
     18 C           6.1195   -1.5598   12.1001 C.2     1  LIG1        0.3091
     19 H           8.6276    0.5422   17.0707 H       1  LIG1        0.0623
     20 H           9.4165   -1.6361   13.7748 H       1  LIG1        0.0623
     21 H           6.3195    0.9164   13.7531 H       1  LIG1        0.0623
     22 H           6.4181    2.7253   15.7243 H       1  LIG1        0.0426
     23 H           6.7655    2.0535   17.1334 H       1  LIG1        0.0426
     24 H          10.1698   -1.4202   17.2034 H       1  LIG1        0.0426
     25 H          10.5878   -2.0775   15.8764 H       1  LIG1        0.0426
     26 H           8.1288   -1.5306   11.7987 H       1  LIG1        0.0426
     27 H           7.4029   -0.1247   11.5333 H       1  LIG1        0.0426
     28 H           3.3032    1.2091   15.4662 H       1  LIG1        0.2951
     29 H          13.4290   -0.4894   16.9863 H       1  LIG1        0.2951
     30 H           5.0592   -2.8980   11.2437 H       1  LIG1        0.2951
@<TRIPOS>BOND
     1     5    30    1
     2     5    18    1
     3    27    15    1
     4    26    15    1
     5    18    15    1
     6    18     6    2
     7    15    11    1
     8    11    12   ar
     9    11    10   ar
    10    21    12    1
    11    20    10    1
    12    12     7   ar
    13    10     9   ar
    14     1    28    1
    15     1    16    1
    16     4    17    2
    17     7     8   ar
    18     7    13    1
    19     9     8   ar
    20     9    14    1
    21    22    13    1
    22    25    14    1
    23     8    19    1
    24    13    16    1
    25    13    23    1
    26    17    14    1
    27    17     3    1
    28    14    24    1
    29    16     2    2
    30    29     3    1
