@<TRIPOS>MOLECULE
(S)-3-(\g-methyl-N^\a^-triphenylmethylglutamyl)benzotriazole 1-Oxide
 67 71 0 0 0
SMALL
GASTEIGER

@<TRIPOS>ATOM
      1 O           1.6743    9.6425    8.2308 O.3     1  LIG1       -0.0649
      2 N           2.7274    9.2660    7.6449 N.4     1  LIG1       -0.1101
      3 N           3.8969    9.2589    8.2320 N.3     1  LIG1        0.0102
      4 N           4.7783    8.8168    7.2769 N.am    1  LIG1       -0.1619
      5 C           4.1398    8.5429    6.0843 C.ar    1  LIG1        0.0834
      6 C           4.5534    8.0637    4.8402 C.ar    1  LIG1       -0.0366
      7 H           5.4430    7.8641    4.6601 H       1  LIG1        0.0637
      8 C           3.5727    7.9040    3.9040 C.ar    1  LIG1       -0.0598
      9 H           3.8093    7.6045    3.0561 H       1  LIG1        0.0618
     10 C           2.2216    8.1750    4.1695 C.ar    1  LIG1       -0.0596
     11 H           1.5913    8.0295    3.5007 H       1  LIG1        0.0618
     12 C           1.8071    8.6471    5.3798 C.ar    1  LIG1       -0.0326
     13 H           0.9148    8.8353    5.5613 H       1  LIG1        0.0640
     14 C           2.8059    8.8268    6.3176 C.ar    1  LIG1        0.1121
     15 C           6.1700    8.7398    7.5489 C.2     1  LIG1        0.2534
     16 O           6.9123    8.4324    6.6576 O.2     1  LIG1       -0.2721
     17 C           6.6170    9.1434    8.9519 C.3     1  LIG1        0.0882
     18 H           5.9009    8.9123    9.5796 H       1  LIG1        0.0557
     19 N           7.8236    8.4534    9.3684 N.3     1  LIG1       -0.2888
     20 H           8.3717    8.4859    8.7835 H       1  LIG1        0.1241
     21 C           6.8031   10.6708    8.9741 C.3     1  LIG1       -0.0189
     22 H           5.9325   11.0873    8.8803 H       1  LIG1        0.0290
     23 H           7.1571   10.9247    9.8407 H       1  LIG1        0.0290
     24 C           7.7224   11.2256    7.8965 C.3     1  LIG1        0.0468
     25 H           8.0990   12.0657    8.1991 H       1  LIG1        0.0378
     26 H           8.4548   10.6052    7.7504 H       1  LIG1        0.0378
     27 C           6.9900   11.4495    6.5815 C.2     1  LIG1        0.3069
     28 O           5.8151   11.4923    6.4269 O.2     1  LIG1       -0.2509
     29 O           7.8615   11.5579    5.5762 O.3     1  LIG1       -0.4679
     30 C           7.2438   11.8089    4.3055 C.3     1  LIG1        0.0817
     31 H           7.9202   11.8755    3.6280 H       1  LIG1        0.0661
     32 H           6.7498   12.6314    4.3469 H       1  LIG1        0.0661
     33 H           6.6468   11.0881    4.0917 H       1  LIG1        0.0661
     34 C           7.6736    7.0896    9.9261 C.3     1  LIG1        0.0962
     35 C           9.0762    6.5287   10.2429 C.ar    1  LIG1       -0.0186
     36 C           9.2532    5.1800   10.4964 C.ar    1  LIG1       -0.0562
     37 H           8.5253    4.6043   10.4367 H       1  LIG1        0.0621
     38 C          10.4985    4.6722   10.8374 C.ar    1  LIG1       -0.0614
     39 H          10.5979    3.7637   11.0144 H       1  LIG1        0.0618
     40 C          11.5877    5.5123   10.9154 C.ar    1  LIG1       -0.0617
     41 H          12.4267    5.1728   11.1280 H       1  LIG1        0.0618
     42 C          11.4251    6.8486   10.6769 C.ar    1  LIG1       -0.0614
     43 H          12.1584    7.4177   10.7294 H       1  LIG1        0.0618
     44 C          10.1734    7.3663   10.3569 C.ar    1  LIG1       -0.0562
     45 H          10.0741    8.2805   10.2184 H       1  LIG1        0.0621
     46 C           6.9322    6.1940    8.9183 C.ar    1  LIG1       -0.0186
     47 C           5.5387    6.1027    8.8982 C.ar    1  LIG1       -0.0562
     48 H           5.0420    6.4978    9.5783 H       1  LIG1        0.0621
     49 C           4.8885    5.4310    7.8780 C.ar    1  LIG1       -0.0614
     50 H           3.9601    5.3753    7.8863 H       1  LIG1        0.0618
     51 C           5.5794    4.8534    6.8634 C.ar    1  LIG1       -0.0617
     52 H           5.1314    4.4127    6.1781 H       1  LIG1        0.0618
     53 C           6.9674    4.9275    6.8614 C.ar    1  LIG1       -0.0614
     54 H           7.4560    4.5325    6.1761 H       1  LIG1        0.0618
     55 C           7.6204    5.5936    7.8844 C.ar    1  LIG1       -0.0562
     56 H           8.5496    5.6363    7.8747 H       1  LIG1        0.0621
     57 C           6.9593    7.1938   11.3011 C.ar    1  LIG1       -0.0186
     58 C           6.3524    6.0927   11.8732 C.ar    1  LIG1       -0.0562
     59 H           6.3190    5.2898   11.4052 H       1  LIG1        0.0621
     60 C           5.7907    6.1754   13.1455 C.ar    1  LIG1       -0.0614
     61 H           5.3852    5.4281   13.5225 H       1  LIG1        0.0618
     62 C           5.8322    7.3620   13.8473 C.ar    1  LIG1       -0.0617
     63 H           5.4448    7.4205   14.6906 H       1  LIG1        0.0618
     64 C           6.4436    8.4417   13.2990 C.ar    1  LIG1       -0.0614
     65 H           6.4843    9.2389   13.7771 H       1  LIG1        0.0618
     66 C           7.0090    8.3718   12.0288 C.ar    1  LIG1       -0.0562
     67 H           7.4244    9.1205   11.6662 H       1  LIG1        0.0621
@<TRIPOS>BOND
     1     9     8    1
     2    11    10    1
     3    31    30    1
     4     8    10   ar
     5     8     6   ar
     6    33    30    1
     7    10    12   ar
     8    30    32    1
     9    30    29    1
    10     7     6    1
    11     6     5   ar
    12    12    13    1
    13    12    14   ar
    14    29    27    1
    15     5    14   ar
    16     5     4    1
    17    54    53    1
    18    52    51    1
    19    14     2    1
    20    28    27    2
    21    27    24    1
    22    16    15    2
    23    53    51   ar
    24    53    55   ar
    25    51    49   ar
    26     4    15   am
    27     4     3    1
    28    15    17    1
    29     2     1    1
    30     2     3    1
    31    26    24    1
    32    56    55    1
    33    49    50    1
    34    49    47   ar
    35    55    46   ar
    36    24    25    1
    37    24    21    1
    38    20    19    1
    39    22    21    1
    40    47    46   ar
    41    47    48    1
    42    46    34    1
    43    17    21    1
    44    17    19    1
    45    17    18    1
    46    21    23    1
    47    19    34    1
    48    34    35    1
    49    34    57    1
    50    45    44    1
    51    35    44   ar
    52    35    36   ar
    53    44    42   ar
    54    37    36    1
    55    36    38   ar
    56    42    43    1
    57    42    40   ar
    58    38    40   ar
    59    38    39    1
    60    40    41    1
    61    57    58   ar
    62    57    66   ar
    63    59    58    1
    64    67    66    1
    65    58    60   ar
    66    66    64   ar
    67    60    61    1
    68    60    62   ar
    69    64    65    1
    70    64    62   ar
    71    62    63    1
