@<TRIPOS>MOLECULE
tyrosyl-D-tetrahydroisoquinoline-3-carboxamide
 49 50 0 0 0
SMALL
GASTEIGER

@<TRIPOS>ATOM
      1 N           8.5568    4.2759    0.1649 N.3     1  LIG1       -0.3197
      2 H           8.3424    4.8746   -0.4603 H       1  LIG1        0.1189
      3 H           9.5949    4.1964    0.0959 H       1  LIG1        0.1189
      4 C           7.9861    4.7008    1.4615 C.3     1  LIG1        0.0865
      5 H           8.1265    3.9866    2.1184 H       1  LIG1        0.0558
      6 C           6.5004    4.8820    1.2476 C.2     1  LIG1        0.2336
      7 O           6.1351    5.4977    0.2378 O.2     1  LIG1       -0.2739
      8 C           8.5741    6.0191    2.0225 C.3     1  LIG1       -0.0039
      9 H           9.5422    5.9820    1.9822 H       1  LIG1        0.0333
     10 H           8.2800    6.7619    1.4720 H       1  LIG1        0.0333
     11 C           8.1423    6.2491    3.4437 C.ar    1  LIG1       -0.0452
     12 C           8.7654    5.5454    4.4708 C.ar    1  LIG1       -0.0551
     13 H           9.4704    4.9753    4.2608 H       1  LIG1        0.0621
     14 C           8.3723    5.6630    5.7980 C.ar    1  LIG1       -0.0199
     15 H           8.7887    5.1565    6.4587 H       1  LIG1        0.0654
     16 C           7.3581    6.5394    6.1260 C.ar    1  LIG1        0.1169
     17 O           7.0374    6.6433    7.4494 O.3     1  LIG1       -0.5068
     18 H           6.3514    7.3437    7.6814 H       1  LIG1        0.2921
     19 C           6.7256    7.2505    5.1306 C.ar    1  LIG1       -0.0199
     20 H           6.0321    7.8333    5.3415 H       1  LIG1        0.0654
     21 C           7.1268    7.0926    3.8033 C.ar    1  LIG1       -0.0551
     22 H           6.6899    7.5779    3.1416 H       1  LIG1        0.0621
     23 N           5.5921    4.4115    2.1357 N.am    1  LIG1       -0.2840
     24 C           4.1848    4.6871    1.9256 C.3     1  LIG1        0.1063
     25 H           4.1288    5.2868    1.1527 H       1  LIG1        0.0600
     26 C           3.3816    3.4461    1.5718 C.2     1  LIG1        0.2314
     27 O           2.1801    3.4080    1.7866 O.2     1  LIG1       -0.2740
     28 N           4.0480    2.4596    0.9830 N.am    1  LIG1       -0.3278
     29 H           3.4500    1.8227    0.6329 H       1  LIG1        0.1450
     30 H           5.0190    2.5645    0.8247 H       1  LIG1        0.1450
     31 C           3.6267    5.4575    3.1109 C.3     1  LIG1       -0.0001
     32 H           3.9692    6.3646    3.0918 H       1  LIG1        0.0336
     33 H           2.6604    5.5030    3.0352 H       1  LIG1        0.0336
     34 C           3.9865    4.8248    4.4190 C.ar    1  LIG1       -0.0405
     35 C           5.0672    3.9548    4.5158 C.ar    1  LIG1       -0.0268
     36 C           5.9329    3.6146    3.3334 C.3     1  LIG1        0.0408
     37 H           6.8619    3.7704    3.5645 H       1  LIG1        0.0514
     38 H           5.8327    2.6726    3.1272 H       1  LIG1        0.0514
     39 C           3.2395    5.1141    5.5717 C.ar    1  LIG1       -0.0582
     40 H           2.5046    5.6811    5.5151 H       1  LIG1        0.0620
     41 C           3.5862    4.5641    6.7896 C.ar    1  LIG1       -0.0615
     42 H           3.0927    4.7686    7.5501 H       1  LIG1        0.0618
     43 C           4.6635    3.7121    6.8740 C.ar    1  LIG1       -0.0614
     44 H           4.8883    3.3349    7.6939 H       1  LIG1        0.0618
     45 C           5.4188    3.4122    5.7491 C.ar    1  LIG1       -0.0568
     46 H           6.1571    2.8506    5.8181 H       1  LIG1        0.0621
     47 O           6.9475    1.8640    0.3567 O.3     2  HOH2       -0.4105
     48 H           7.5444    2.4373    0.1726 H       0  HOH0        0.2052
     49 H           7.4888    1.3140    0.8247 H       0  HOH0        0.2052
@<TRIPOS>BOND
     1     2     1    1
     2     3     1    1
     3     1     4    1
     4    48    47    1
     5     7     6    2
     6    47    49    1
     7    29    28    1
     8    30    28    1
     9    28    26   am
    10    25    24    1
    11     6     4    1
    12     6    23   am
    13     4     8    1
    14     4     5    1
    15    10     8    1
    16    26    27    2
    17    26    24    1
    18    24    23    1
    19    24    31    1
    20     9     8    1
    21     8    11    1
    22    23    36    1
    23    33    31    1
    24    32    31    1
    25    31    34    1
    26    38    36    1
    27    22    21    1
    28    36    37    1
    29    36    35    1
    30    11    21   ar
    31    11    12   ar
    32    21    19   ar
    33    13    12    1
    34    34    35   ar
    35    34    39   ar
    36    12    14   ar
    37    35    45   ar
    38    19    20    1
    39    19    16   ar
    40    40    39    1
    41    39    41   ar
    42    45    46    1
    43    45    43   ar
    44    14    16   ar
    45    14    15    1
    46    16    17    1
    47    41    43   ar
    48    41    42    1
    49    43    44    1
    50    17    18    1
