@<TRIPOS>MOLECULE
9-Methylthiophenanthrene
 56 60 0 0 0
SMALL
GASTEIGER

@<TRIPOS>ATOM
      1 S           2.2374    0.0405    1.4954 S.3     1  LIG1       -0.1280
      2 C           1.1204    1.0631   -3.5166 C.ar    1  LIG1       -0.0540
      3 H           0.6070    1.7799   -3.2174 H       1  LIG1        0.0624
      4 C           1.1959    0.8109   -4.8552 C.ar    1  LIG1       -0.0612
      5 H           0.7337    1.3431   -5.4604 H       1  LIG1        0.0618
      6 C           1.9734   -0.2505   -5.3014 C.ar    1  LIG1       -0.0611
      7 H           2.0270   -0.4235   -6.2143 H       1  LIG1        0.0618
      8 C           2.6627   -1.0482   -4.4261 C.ar    1  LIG1       -0.0534
      9 H           3.1773   -1.7521   -4.7458 H       1  LIG1        0.0624
     10 C           2.5910   -0.8004   -3.0277 C.ar    1  LIG1       -0.0101
     11 C           3.3024   -1.6285   -2.0498 C.ar    1  LIG1       -0.0091
     12 C           4.1255   -2.7017   -2.4173 C.ar    1  LIG1       -0.0534
     13 H           4.2086   -2.9184   -3.3183 H       1  LIG1        0.0624
     14 C           4.8084   -3.4361   -1.4959 C.ar    1  LIG1       -0.0611
     15 H           5.3633   -4.1306   -1.7677 H       1  LIG1        0.0618
     16 C           4.6675   -3.1373   -0.1351 C.ar    1  LIG1       -0.0611
     17 H           5.1178   -3.6490    0.4992 H       1  LIG1        0.0618
     18 C           3.8862   -2.1152    0.2633 C.ar    1  LIG1       -0.0530
     19 H           3.8152   -1.9223    1.1711 H       1  LIG1        0.0624
     20 C           3.1711   -1.3298   -0.6736 C.ar    1  LIG1       -0.0039
     21 C           2.3319   -0.2300   -0.2462 C.ar    1  LIG1        0.0159
     22 C           1.6969    0.5416   -1.1745 C.ar    1  LIG1       -0.0400
     23 H           1.1857    1.2660   -0.8907 H       1  LIG1        0.0635
     24 C           1.7999    0.2600   -2.5712 C.ar    1  LIG1       -0.0162
     25 C           1.0902    1.4168    1.6309 C.3     1  LIG1       -0.0134
     26 H           0.9707    1.6435    2.5558 H       1  LIG1        0.0344
     27 H           0.2449    1.1679    1.2497 H       1  LIG1        0.0344
     28 H           1.4426    2.1751    1.1591 H       1  LIG1        0.0344
     29 S           2.9207    0.3514   13.0923 S.3     2  LIG2       -0.1280
     30 C          -0.6682    2.4140    9.9241 C.ar    2  LIG2       -0.0540
     31 H          -1.2418    1.7438   10.2198 H       2  LIG2        0.0624
     32 C          -1.1347    3.3535    9.0488 C.ar    2  LIG2       -0.0612
     33 H          -2.0252    3.3347    8.7787 H       2  LIG2        0.0618
     34 C          -0.2897    4.3274    8.5650 C.ar    2  LIG2       -0.0611
     35 H          -0.6062    4.9527    7.9529 H       2  LIG2        0.0618
     36 C           1.0205    4.3790    8.9855 C.ar    2  LIG2       -0.0534
     37 H           1.5785    5.0497    8.6624 H       2  LIG2        0.0624
     38 C           1.5277    3.4300    9.8950 C.ar    2  LIG2       -0.0101
     39 C           2.9105    3.4622   10.3942 C.ar    2  LIG2       -0.0091
     40 C           3.8360    4.3718    9.9702 C.ar    2  LIG2       -0.0534
     41 H           3.5982    4.9826    9.3103 H       2  LIG2        0.0624
     42 C           5.1692    4.4156   10.5105 C.ar    2  LIG2       -0.0611
     43 H           5.8063    5.0458   10.2643 H       2  LIG2        0.0618
     44 C           5.4059    3.3801   11.4712 C.ar    2  LIG2       -0.0611
     45 H           6.2636    3.3568   11.8302 H       2  LIG2        0.0618
     46 C           4.6945    2.5830   11.8559 C.ar    2  LIG2       -0.0530
     47 H           4.9909    1.9678   12.4884 H       2  LIG2        0.0624
     48 C           3.3123    2.5137   11.3670 C.ar    2  LIG2       -0.0039
     49 C           2.4086    1.5276   11.8337 C.ar    2  LIG2        0.0159
     50 C           1.1179    1.4700   11.3704 C.ar    2  LIG2       -0.0400
     51 H           0.5386    0.8126   11.6815 H       2  LIG2        0.0635
     52 C           0.6634    2.4350   10.3925 C.ar    2  LIG2       -0.0162
     53 C           1.5378   -0.6835   13.3176 C.3     2  LIG2       -0.0134
     54 H           1.7387   -1.3453   13.9826 H       2  LIG2        0.0344
     55 H           1.3255   -1.1175   12.4884 H       2  LIG2        0.0344
     56 H           0.7886   -0.1574   13.6048 H       2  LIG2        0.0344
@<TRIPOS>BOND
     1     7     6    1
     2     5     4    1
     3     6     4   ar
     4     6     8   ar
     5     4     2   ar
     6     9     8    1
     7     8    10   ar
     8     2     3    1
     9     2    24   ar
    10    13    12    1
    11    10    24   ar
    12    10    11   ar
    13    24    22   ar
    14    12    11   ar
    15    12    14   ar
    16    11    20   ar
    17    15    14    1
    18    14    16   ar
    19    22    23    1
    20    22    21   ar
    21    20    21   ar
    22    20    18   ar
    23    21     1    1
    24    16    18   ar
    25    16    17    1
    26    18    19    1
    27    28    25    1
    28    27    25    1
    29     1    25    1
    30    25    26    1
    31    35    34    1
    32    34    36   ar
    33    34    32   ar
    34    37    36    1
    35    33    32    1
    36    36    38   ar
    37    32    30   ar
    38    41    40    1
    39    38    52   ar
    40    38    39   ar
    41    30    31    1
    42    30    52   ar
    43    40    39   ar
    44    40    42   ar
    45    43    42    1
    46    52    50   ar
    47    39    48   ar
    48    42    44   ar
    49    48    49   ar
    50    48    46   ar
    51    50    51    1
    52    50    49   ar
    53    44    45    1
    54    44    46   ar
    55    49    29    1
    56    46    47    1
    57    55    53    1
    58    29    53    1
    59    53    56    1
    60    53    54    1
