@<TRIPOS>MOLECULE
Endo,endo-2,5-dibromo-9-oxabicyclo[4.2.1]nonane
 23 24 0 0 0
SMALL
GASTEIGER

@<TRIPOS>ATOM
      1 C           0.5933    0.6146    4.7389 C.3     1  LIG1        0.0411
      2 H          -0.0121    0.3915    4.0009 H       1  LIG1        0.0443
      3 BR          1.1486    2.4851    4.4868 Br      1  LIG1       -0.0854
      4 C          -0.2084    0.4974    6.0247 C.3     1  LIG1       -0.0371
      5 H           0.3762    0.6704    6.7799 H       1  LIG1        0.0277
      6 H          -0.9052    1.1724    6.0279 H       1  LIG1        0.0277
      7 C          -0.8433   -0.8760    6.1892 C.3     1  LIG1       -0.0371
      8 H          -1.5820   -0.7913    6.8118 H       1  LIG1        0.0277
      9 H          -1.2167   -1.1370    5.3327 H       1  LIG1        0.0277
     10 C           0.0485   -2.0006    6.6716 C.3     1  LIG1        0.0411
     11 H          -0.3638   -2.8401    6.3770 H       1  LIG1        0.0443
     12 BR          0.1041   -2.0458    8.6515 Br      1  LIG1       -0.0854
     13 C           1.4822   -1.9921    6.1354 C.3     1  LIG1        0.0715
     14 H           1.8466   -2.8990    6.2087 H       1  LIG1        0.0607
     15 C           2.4759   -1.0189    6.7713 C.3     1  LIG1       -0.0232
     16 H           3.2390   -1.4944    7.1337 H       1  LIG1        0.0291
     17 H           2.0543   -0.5141    7.4844 H       1  LIG1        0.0291
     18 C           2.9083   -0.0872    5.6281 C.3     1  LIG1       -0.0232
     19 H           2.9514    0.8349    5.9265 H       1  LIG1        0.0291
     20 H           3.7743   -0.3464    5.2766 H       1  LIG1        0.0291
     21 C           1.8246   -0.2727    4.5932 C.3     1  LIG1        0.0715
     22 H           2.2083   -0.1446    3.7009 H       1  LIG1        0.0607
     23 O           1.4135   -1.6394    4.7358 O.3     1  LIG1       -0.3712
@<TRIPOS>BOND
     1    22    21    1
     2     2     1    1
     3     3     1    1
     4    21    23    1
     5    21     1    1
     6    21    18    1
     7    23    13    1
     8     1     4    1
     9    20    18    1
    10     9     7    1
    11    18    19    1
    12    18    15    1
    13     4     6    1
    14     4     7    1
    15     4     5    1
    16    13    14    1
    17    13    10    1
    18    13    15    1
    19     7    10    1
    20     7     8    1
    21    11    10    1
    22    10    12    1
    23    15    16    1
    24    15    17    1
