@<TRIPOS>MOLECULE
1,3-Diphenyl-2-tricyclo[3,3,1,1^3,7^]dec -2-ylidenepropane-1-imino-3-one
 52 56 0 0 0
SMALL
GASTEIGER

@<TRIPOS>ATOM
      1 O           3.2469   13.8621    0.5505 O.2     1  LIG1       -0.2869
      2 N           5.3219   11.5590    0.5954 N.3     1  LIG1       -0.2379
      3 C           4.7119   13.1532    2.2808 C.2     1  LIG1        0.0277
      4 C           5.3467   14.0927    2.9734 C.2     1  LIG1       -0.0543
      5 C           4.7296   15.4223    3.3562 C.3     1  LIG1       -0.0184
      6 C           4.9078   15.6483    4.8678 C.3     1  LIG1       -0.0436
      7 C           6.4032   15.6405    5.2165 C.3     1  LIG1       -0.0397
      8 C           6.9969   14.2816    4.8508 C.3     1  LIG1       -0.0436
      9 C           6.8156   14.0324    3.3428 C.3     1  LIG1       -0.0184
     10 C           7.5330   15.1468    2.5591 C.3     1  LIG1       -0.0436
     11 C           6.9507   16.5042    2.9382 C.3     1  LIG1       -0.0397
     12 C           7.1182   16.7426    4.4376 C.3     1  LIG1       -0.0473
     13 C           5.4638   16.5305    2.5919 C.3     1  LIG1       -0.0436
     14 C           3.3463   13.3900    1.6915 C.2     1  LIG1        0.1914
     15 C           5.3416   11.8825    1.7960 C.3     1  LIG1        0.1141
     16 C           2.1276   12.9783    2.4217 C.ar    1  LIG1        0.0220
     17 C           2.1367   12.7461    3.7803 C.ar    1  LIG1       -0.0509
     18 C           0.9846   12.3530    4.4401 C.ar    1  LIG1       -0.0611
     19 C          -0.1724   12.1704    3.7341 C.ar    1  LIG1       -0.0617
     20 C          -0.1934   12.3855    2.3780 C.ar    1  LIG1       -0.0611
     21 C           0.9415   12.8034    1.7145 C.ar    1  LIG1       -0.0509
     22 C           5.9782   10.9368    2.7535 C.ar    1  LIG1       -0.0193
     23 C           6.8162    9.9415    2.2711 C.ar    1  LIG1       -0.0564
     24 C           7.3754    9.0221    3.1204 C.ar    1  LIG1       -0.0614
     25 C           7.1082    9.0639    4.4680 C.ar    1  LIG1       -0.0617
     26 C           6.2790   10.0375    4.9589 C.ar    1  LIG1       -0.0614
     27 C           5.7190   10.9708    4.1120 C.ar    1  LIG1       -0.0564
     28 H           5.0098   12.2741   -0.0122 H       1  LIG1        0.1421
     29 H           3.6750   15.4316    3.1107 H       1  LIG1        0.0346
     30 H           4.4181   14.8589    5.4073 H       1  LIG1        0.0274
     31 H           4.4864   16.5924    5.1400 H       1  LIG1        0.0274
     32 H           6.5267   15.8185    6.2822 H       1  LIG1        0.0301
     33 H           8.0488   14.2707    5.0914 H       1  LIG1        0.0274
     34 H           6.4879   13.5123    5.4073 H       1  LIG1        0.0274
     35 H           7.2339   13.0634    3.0743 H       1  LIG1        0.0346
     36 H           7.4020   14.9827    1.4946 H       1  LIG1        0.0274
     37 H           8.5905   15.1220    2.7948 H       1  LIG1        0.0274
     38 H           7.4643   17.2889    2.3938 H       1  LIG1        0.0301
     39 H           6.6948   17.7068    4.7025 H       1  LIG1        0.0271
     40 H           8.1666   16.7317    4.6904 H       1  LIG1        0.0271
     41 H           5.0550   17.4901    2.8555 H       1  LIG1        0.0274
     42 H           5.3419   16.3757    1.5311 H       1  LIG1        0.0274
     43 H           2.9722   12.8467    4.2894 H       1  LIG1        0.0625
     44 H           0.9922   12.2121    5.4073 H       1  LIG1        0.0618
     45 H          -0.9859   11.8871    4.1922 H       1  LIG1        0.0618
     46 H          -1.0183   12.2586    1.8713 H       1  LIG1        0.0618
     47 H           0.9142   12.9706    0.7412 H       1  LIG1        0.0625
     48 H           7.0069    9.8904    1.3123 H       1  LIG1        0.0621
     49 H           7.9757    8.3272    2.7705 H       1  LIG1        0.0618
     50 H           7.5054    8.3891    5.0671 H       1  LIG1        0.0618
     51 H           6.0832   10.0607    5.9177 H       1  LIG1        0.0618
     52 H           5.1276   11.6704    4.4838 H       1  LIG1        0.0621
@<TRIPOS>BOND
     1    28     2    1
     2     1    14    2
     3     2    15    1
     4    47    21    1
     5    48    23    1
     6    36    10    1
     7    42    13    1
     8    14     3    1
     9    14    16    1
    10    21    20   ar
    11    21    16   ar
    12    15     3    1
    13    15    22    1
    14    46    20    1
    15    23    22   ar
    16    23    24   ar
    17     3     4    2
    18    20    19   ar
    19    38    11    1
    20    16    17   ar
    21    10    37    1
    22    10    11    1
    23    10     9    1
    24    13    41    1
    25    13    11    1
    26    13     5    1
    27    22    27   ar
    28    49    24    1
    29    11    12    1
    30     4     9    1
    31     4     5    1
    32    35     9    1
    33    29     5    1
    34    24    25   ar
    35     9     8    1
    36     5     6    1
    37    19    45    1
    38    19    18   ar
    39    17    43    1
    40    17    18   ar
    41    27    52    1
    42    27    26   ar
    43    12    40    1
    44    12    39    1
    45    12     7    1
    46    18    44    1
    47    25    26   ar
    48    25    50    1
    49     8    33    1
    50     8     7    1
    51     8    34    1
    52     6    31    1
    53     6     7    1
    54     6    30    1
    55    26    51    1
    56     7    32    1
