@<TRIPOS>MOLECULE
N-(2'-Dimethylaminoethyl)-2-hydroxy-5-nitrobenzylamine
 34 34 0 0 0
SMALL
GASTEIGER

@<TRIPOS>ATOM
      1 O           2.0207    3.1164    4.3483 O.3     1  LIG1       -0.2874
      2 O          -2.5454    3.0656    0.1401 O.2     1  LIG1       -0.1261
      3 O          -1.7616    1.0768   -0.1326 O.2     1  LIG1       -0.1261
      4 N          -1.7254    2.1877    0.3996 N.pl3   1  LIG1        0.0564
      5 N           3.5022    1.2217    3.2082 N.4     1  LIG1        0.2313
      6 N           5.5665    3.1624    2.9809 N.3     1  LIG1       -0.3034
      7 C           1.1446    2.9234    3.4127 C.ar    1  LIG1        0.1873
      8 C           0.1934    3.8995    3.0453 C.ar    1  LIG1       -0.0123
      9 C          -0.7212    3.6618    2.0548 C.ar    1  LIG1       -0.0278
     10 C          -0.7236    2.4387    1.4014 C.ar    1  LIG1        0.1269
     11 C           0.2031    1.4634    1.7139 C.ar    1  LIG1       -0.0196
     12 C           1.1302    1.6844    2.7139 C.ar    1  LIG1        0.0457
     13 C           2.1206    0.6456    3.1173 C.3     1  LIG1       -0.0039
     14 C           4.1793    1.4220    1.9128 C.3     1  LIG1       -0.0203
     15 C           5.5681    1.9701    2.1552 C.3     1  LIG1        0.0385
     16 C           5.0163    4.3000    2.2726 C.3     1  LIG1       -0.0129
     17 C           6.9078    3.4662    3.4411 C.3     1  LIG1       -0.0129
     18 H           3.3494    2.0095    3.6741 H       1  LIG1        0.2017
     19 H           3.9839    0.7210    3.7877 H       1  LIG1        0.2017
     20 H           0.1779    4.7333    3.5036 H       1  LIG1        0.0656
     21 H          -1.3608    4.3327    1.8181 H       1  LIG1        0.0641
     22 H           0.2093    0.6409    1.2310 H       1  LIG1        0.0646
     23 H           1.8839    0.2937    3.9581 H       1  LIG1        0.0868
     24 H           2.1163   -0.0534    2.4809 H       1  LIG1        0.0868
     25 H           3.6846    2.0362    1.3825 H       1  LIG1        0.0826
     26 H           4.2331    0.5942    1.4583 H       1  LIG1        0.0826
     27 H           6.0803    1.3018    2.5946 H       1  LIG1        0.0479
     28 H           5.9634    2.1831    1.3257 H       1  LIG1        0.0479
     29 H           5.0110    5.0804    2.8218 H       1  LIG1        0.0391
     30 H           4.1228    4.0991    2.0075 H       1  LIG1        0.0391
     31 H           5.5479    4.4596    1.4961 H       1  LIG1        0.0391
     32 H           6.9111    4.2459    3.9771 H       1  LIG1        0.0391
     33 H           7.4745    3.6050    2.6893 H       1  LIG1        0.0391
     34 H           7.2347    2.7305    3.9581 H       1  LIG1        0.0391
@<TRIPOS>BOND
     1     3     4    2
     2     2     4    2
     3     4    10    1
     4    22    11    1
     5    28    15    1
     6    25    14    1
     7    10    11   ar
     8    10     9   ar
     9    26    14    1
    10    31    16    1
    11    11    12   ar
    12    21     9    1
    13    14    15    1
    14    14     5    1
    15    30    16    1
    16     9     8   ar
    17    15    27    1
    18    15     6    1
    19    16    29    1
    20    16     6    1
    21    24    13    1
    22    33    17    1
    23    12    13    1
    24    12     7   ar
    25     6    17    1
    26     8     7   ar
    27     8    20    1
    28    13     5    1
    29    13    23    1
    30     5    18    1
    31     5    19    1
    32     7     1    1
    33    17    34    1
    34    17    32    1
