@<TRIPOS>MOLECULE
?
 36 38 0 0 0
SMALL
GASTEIGER

@<TRIPOS>ATOM
      1 O           9.1097    3.9537   12.8847 O.3     1  LIG1       -0.4806
      2 O           9.3746    2.2341   14.2694 O.2     1  LIG1       -0.2510
      3 C           8.8146    3.2696   13.9707 C.2     1  LIG1        0.3047
      4 C           7.7514    3.9230   14.7845 C.3     1  LIG1        0.0451
      5 C           7.3429    3.1729   16.0309 C.3     1  LIG1       -0.0390
      6 C           6.3696    3.9774   16.8833 C.3     1  LIG1       -0.0272
      7 C           4.2214    1.4775   18.7272 C.ar    1  LIG1       -0.0538
      8 C           4.8092    2.1994   17.7331 C.ar    1  LIG1       -0.0580
      9 C           5.7547    3.1946   18.0164 C.ar    1  LIG1       -0.0467
     10 C           6.0861    3.4236   19.3272 C.ar    1  LIG1       -0.0503
     11 C           6.7694    3.8913   22.2115 C.ar    1  LIG1       -0.0534
     12 C           7.0659    4.0599   23.5197 C.ar    1  LIG1       -0.0611
     13 C           6.4636    3.2681   24.5035 C.ar    1  LIG1       -0.0612
     14 C           5.5714    2.3071   24.1275 C.ar    1  LIG1       -0.0540
     15 C           4.2971    1.1170   22.3943 C.ar    1  LIG1       -0.0534
     16 C           3.9586    0.9202   21.1093 C.ar    1  LIG1       -0.0534
     17 C           4.5541    1.7020   20.0689 C.ar    1  LIG1       -0.0173
     18 C           5.5123    2.6912   20.3910 C.ar    1  LIG1       -0.0099
     19 C           5.8541    2.9066   21.7866 C.ar    1  LIG1       -0.0102
     20 C           5.2443    2.1103   22.7729 C.ar    1  LIG1       -0.0173
     21 H           9.8385    3.4986   12.4642 H       1  LIG1        0.2951
     22 H           8.0752    4.8070   15.0523 H       1  LIG1        0.0378
     23 H           6.9574    4.0247   14.2179 H       1  LIG1        0.0378
     24 H           8.1442    2.9806   16.5614 H       1  LIG1        0.0274
     25 H           6.9141    2.3312   15.7708 H       1  LIG1        0.0274
     26 H           6.8513    4.7420   17.2619 H       1  LIG1        0.0313
     27 H           5.6479    4.3005   16.3039 H       1  LIG1        0.0313
     28 H           3.5568    0.7939   18.5006 H       1  LIG1        0.0624
     29 H           4.5658    2.0191   16.8009 H       1  LIG1        0.0620
     30 H           6.7438    4.1193   19.5358 H       1  LIG1        0.0627
     31 H           7.2012    4.4652   21.5445 H       1  LIG1        0.0624
     32 H           7.7126    4.7471   23.7824 H       1  LIG1        0.0618
     33 H           6.6801    3.4030   25.4511 H       1  LIG1        0.0618
     34 H           5.1517    1.7448   24.8125 H       1  LIG1        0.0624
     35 H           3.8804    0.5643   23.0871 H       1  LIG1        0.0624
     36 H           3.2972    0.2336   20.8827 H       1  LIG1        0.0624
@<TRIPOS>BOND
     1    21     1    1
     2     1     3    1
     3     3     2    2
     4     3     4    1
     5    23     4    1
     6     4    22    1
     7     4     5    1
     8    25     5    1
     9     5    24    1
    10     5     6    1
    11    27     6    1
    12    29     8    1
    13     6    26    1
    14     6     9    1
    15     8     9   ar
    16     8     7   ar
    17     9    10   ar
    18    28     7    1
    19     7    17   ar
    20    10    30    1
    21    10    18   ar
    22    17    18   ar
    23    17    16   ar
    24    18    19   ar
    25    36    16    1
    26    16    15   ar
    27    31    11    1
    28    19    11   ar
    29    19    20   ar
    30    11    12   ar
    31    15    20   ar
    32    15    35    1
    33    20    14   ar
    34    12    32    1
    35    12    13   ar
    36    14    13   ar
    37    14    34    1
    38    13    33    1
