@<TRIPOS>MOLECULE
?
 28 27 0 0 0
SMALL
GASTEIGER

@<TRIPOS>ATOM
      1 O           6.5868    3.4679    1.0706 O.2     1  LIG1       -0.0867
      2 O           5.4945    1.6447    0.7626 O.2     1  LIG1       -0.0867
      3 O           4.9116    3.0120    2.3280 O.2     1  LIG1       -0.0867
      4 O           3.4262    0.1131    1.6670 O.3     2  LIG2       -0.5063
      5 N           1.2258   -1.9619    1.3848 N.4     2  LIG2        0.2304
      6 N           5.6673    2.7212    1.3912 N.pl3   1  LIG1        0.2601
      7 C           3.8235   -0.7787    2.6089 C.ar    2  LIG2        0.1251
      8 C           5.1454   -0.9450    2.9951 C.ar    2  LIG2       -0.0197
      9 C           5.4557   -1.8648    3.9672 C.ar    2  LIG2       -0.0583
     10 C           4.4783   -2.6144    4.5685 C.ar    2  LIG2       -0.0611
     11 C           3.1639   -2.4612    4.1791 C.ar    2  LIG2       -0.0500
     12 C           2.8243   -1.5493    3.1942 C.ar    2  LIG2        0.0383
     13 C           1.4168   -1.3611    2.7430 C.3     2  LIG2       -0.0042
     14 C          -0.1320   -1.7799    0.7931 C.3     2  LIG2       -0.0332
     15 C          -0.4736   -0.3355    0.4881 C.3     2  LIG2       -0.0078
     16 H           4.0710    0.6513    1.4048 H       2  LIG2        0.2921
     17 H           1.8500   -1.6305    0.8108 H       2  LIG2        0.2017
     18 H           1.3405   -2.8986    1.4450 H       2  LIG2        0.2017
     19 H           5.7978   -0.3764    2.6009 H       2  LIG2        0.0654
     20 H           6.3028   -1.9944    4.2225 H       2  LIG2        0.0619
     21 H           4.6905   -3.2641    5.2500 H       2  LIG2        0.0618
     22 H           2.4387   -2.9955    4.5757 H       2  LIG2        0.0623
     23 H           0.7704   -1.8210    3.3475 H       2  LIG2        0.0868
     24 H           1.1934   -0.4404    2.6411 H       2  LIG2        0.0868
     25 H          -0.1497   -2.3333   -0.0482 H       2  LIG2        0.0814
     26 H          -0.7781   -2.1693    1.3968 H       2  LIG2        0.0814
     27 H          -1.3852   -0.3483    0.1525 H       2  LIG2        0.0319
     28 H          -0.4769    0.2062    1.3085 H       2  LIG2        0.0319
@<TRIPOS>BOND
     1    25    14    1
     2    27    15    1
     3    15    14    1
     4    15    28    1
     5     2     6    2
     6    14     5    1
     7    14    26    1
     8    17     5    1
     9     1     6    2
    10     5    18    1
    11     5    13    1
    12     6     3    1
    13    16     4    1
    14     4     7    1
    15    19     8    1
    16     7     8   ar
    17     7    12   ar
    18    24    13    1
    19    13    12    1
    20    13    23    1
    21     8     9   ar
    22    12    11   ar
    23     9    20    1
    24     9    10   ar
    25    11    10   ar
    26    11    22    1
    27    10    21    1
