@<TRIPOS>MOLECULE
N-(1-Adamantyl)acetamide
 33 35 0 0 0
SMALL
GASTEIGER

@<TRIPOS>ATOM
      1 O           7.1364    5.1978    5.4300 O.2     1  LIG1       -0.2761
      2 N           7.8550    4.1431    3.5583 N.am    1  LIG1       -0.3100
      3 C           8.8770    3.2735    4.1695 C.3     1  LIG1        0.0353
      4 C           8.2308    2.3010    5.1621 C.3     1  LIG1       -0.0287
      5 C           9.2954    1.3823    5.7589 C.3     1  LIG1       -0.0386
      6 C           9.9643    0.5863    4.6443 C.3     1  LIG1       -0.0472
      7 C          10.6082    1.5428    3.6537 C.3     1  LIG1       -0.0386
      8 C          11.6703    2.3794    4.3669 C.3     1  LIG1       -0.0472
      9 C          11.0037    3.1678    5.4853 C.3     1  LIG1       -0.0386
     10 C           9.9501    4.1025    4.8846 C.3     1  LIG1       -0.0287
     11 C          10.3449    2.2236    6.4788 C.3     1  LIG1       -0.0472
     12 C           9.5436    2.4672    3.0597 C.3     1  LIG1       -0.0287
     13 C           7.0641    4.9939    4.2191 C.2     1  LIG1        0.2103
     14 C           6.0375    5.7171    3.3915 C.3     1  LIG1        0.0122
     15 H           7.7453    4.0789    2.6983 H       1  LIG1        0.1492
     16 H           7.5475    1.7845    4.6911 H       1  LIG1        0.0288
     17 H           7.7688    2.7948    5.8829 H       1  LIG1        0.0288
     18 H           8.8751    0.7554    6.3882 H       1  LIG1        0.0302
     19 H          10.6418    0.0094    5.0438 H       1  LIG1        0.0271
     20 H           9.2724    0.0378    4.2239 H       1  LIG1        0.0271
     21 H          11.0158    1.0197    2.9271 H       1  LIG1        0.0302
     22 H          12.3333    1.7657    4.7483 H       1  LIG1        0.0271
     23 H          12.1073    3.0120    3.7662 H       1  LIG1        0.0271
     24 H          11.6746    3.6729    5.9592 H       1  LIG1        0.0302
     25 H           9.5073    4.6171    5.5873 H       1  LIG1        0.0288
     26 H          10.3604    4.7116    4.2143 H       1  LIG1        0.0288
     27 H          11.0227    1.6146    6.8650 H       1  LIG1        0.0271
     28 H           9.9172    2.7382    7.2177 H       1  LIG1        0.0271
     29 H           8.8913    1.9828    2.5267 H       1  LIG1        0.0288
     30 H           9.9323    3.0498    2.4027 H       1  LIG1        0.0288
     31 H           5.9655    5.3914    2.5076 H       1  LIG1        0.0322
     32 H           6.2683    6.6188    3.3753 H       1  LIG1        0.0322
     33 H           5.1921    5.7879    3.8615 H       1  LIG1        0.0322
@<TRIPOS>BOND
     1    30    12    1
     2    31    14    1
     3    29    12    1
     4    15     2    1
     5    21     7    1
     6    12     7    1
     7    12     3    1
     8    32    14    1
     9    14    33    1
    10    14    13    1
    11     2     3    1
    12     2    13   am
    13     7     8    1
    14     7     6    1
    15    23     8    1
    16     3    10    1
    17     3     4    1
    18    26    10    1
    19    13     1    2
    20    20     6    1
    21     8    22    1
    22     8     9    1
    23     6    19    1
    24     6     5    1
    25    16     4    1
    26    10     9    1
    27    10    25    1
    28     4     5    1
    29     4    17    1
    30     9    24    1
    31     9    11    1
    32     5    18    1
    33     5    11    1
    34    11    27    1
    35    11    28    1
