@<TRIPOS>MOLECULE
(S,S)-trans-1,2,3,4-tetrahydro-2,3-naphthalenediol
 48 50 0 0 0
SMALL
GASTEIGER

@<TRIPOS>ATOM
      1 O           2.3088    8.4001    4.7770 O.3     1  LIG1       -0.3889
      2 O           4.3684   10.1475    3.8946 O.3     1  LIG1       -0.3889
      3 C           1.3610   10.1747    6.1424 C.3     1  LIG1        0.0011
      4 C           2.1907    9.8324    4.9286 C.3     1  LIG1        0.0853
      5 C           3.5472   10.4903    5.0114 C.3     1  LIG1        0.0853
      6 C           3.3927   11.9982    5.0074 C.3     1  LIG1        0.0011
      7 C           2.3435   12.4957    5.9702 C.ar    1  LIG1       -0.0416
      8 C           2.3282   13.8332    6.3596 C.ar    1  LIG1       -0.0582
      9 C           1.3497   14.3259    7.1900 C.ar    1  LIG1       -0.0615
     10 C           0.3572   13.4935    7.6603 C.ar    1  LIG1       -0.0615
     11 C           0.3623   12.1568    7.2981 C.ar    1  LIG1       -0.0582
     12 C           1.3512   11.6551    6.4622 C.ar    1  LIG1       -0.0416
     13 O           3.4301    7.4356    2.2579 O.3     2  LIG2       -0.3889
     14 O           5.6502    7.5892    3.9557 O.3     2  LIG2       -0.3889
     15 C           4.2321    5.4509    1.2633 C.3     2  LIG2        0.0011
     16 C           4.2641    6.3065    2.5029 C.3     2  LIG2        0.0853
     17 C           5.6856    6.6983    2.8338 C.3     2  LIG2        0.0853
     18 C           6.4986    5.4518    3.1525 C.3     2  LIG2        0.0011
     19 C           6.3055    4.3329    2.1630 C.ar    2  LIG2       -0.0416
     20 C           7.2211    3.2776    2.1109 C.ar    2  LIG2       -0.0582
     21 C           7.0614    2.2296    1.2366 C.ar    2  LIG2       -0.0615
     22 C           5.9723    2.1985    0.3920 C.ar    2  LIG2       -0.0615
     23 C           5.0539    3.2272    0.4344 C.ar    2  LIG2       -0.0582
     24 C           5.2121    4.3091    1.3043 C.ar    2  LIG2       -0.0416
     25 H           2.5208    8.0836    5.4857 H       1  LIG1        0.2099
     26 H           4.6418    9.3338    3.9653 H       1  LIG1        0.2099
     27 H           1.7546    9.6789    6.9001 H       1  LIG1        0.0339
     28 H           0.4588    9.8146    5.9858 H       1  LIG1        0.0339
     29 H           1.7474   10.1144    4.1118 H       1  LIG1        0.0622
     30 H           4.0151   10.2078    5.8393 H       1  LIG1        0.0622
     31 H           3.1777   12.2301    4.1118 H       1  LIG1        0.0339
     32 H           4.3017   12.3913    5.2029 H       1  LIG1        0.0339
     33 H           3.0148   14.4363    6.0313 H       1  LIG1        0.0620
     34 H           1.3353   15.1943    7.4911 H       1  LIG1        0.0618
     35 H          -0.3649   13.7942    8.2286 H       1  LIG1        0.0618
     36 H          -0.3250   11.5230    7.7386 H       1  LIG1        0.0620
     37 H           3.2584    7.8376    3.0358 H       2  LIG2        0.2099
     38 H           6.4394    7.6792    4.2077 H       2  LIG2        0.2099
     39 H           4.4195    6.0160    0.5304 H       2  LIG2        0.0339
     40 H           3.2867    5.1053    1.1820 H       2  LIG2        0.0339
     41 H           3.9042    5.7869    3.2682 H       2  LIG2        0.0622
     42 H           6.0831    7.1502    2.1064 H       2  LIG2        0.0622
     43 H           6.2549    5.1392    4.0562 H       2  LIG2        0.0339
     44 H           7.4435    5.6766    3.1975 H       2  LIG2        0.0339
     45 H           7.9541    3.2781    2.7378 H       2  LIG2        0.0620
     46 H           7.6833    1.5217    1.1921 H       2  LIG2        0.0618
     47 H           5.8910    1.4679   -0.3182 H       2  LIG2        0.0618
     48 H           4.2649    3.2329   -0.1364 H       2  LIG2        0.0620
@<TRIPOS>BOND
     1    47    22    1
     2    48    23    1
     3    22    23   ar
     4    22    21   ar
     5    23    24   ar
     6    39    15    1
     7    40    15    1
     8    46    21    1
     9    21    20   ar
    10    15    24    1
    11    15    16    1
    12    24    19   ar
    13    42    17    1
    14    20    19   ar
    15    20    45    1
    16    19    18    1
    17    13    16    1
    18    13    37    1
    19    16    17    1
    20    16    41    1
    21    17    18    1
    22    17    14    1
    23    18    44    1
    24    18    43    1
    25     2    26    1
    26     2     5    1
    27    14    38    1
    28    31     6    1
    29    29     4    1
    30     1     4    1
    31     1    25    1
    32     4     5    1
    33     4     3    1
    34     6     5    1
    35     6    32    1
    36     6     7    1
    37     5    30    1
    38     7     8   ar
    39     7    12   ar
    40    28     3    1
    41    33     8    1
    42     3    12    1
    43     3    27    1
    44     8     9   ar
    45    12    11   ar
    46     9    34    1
    47     9    10   ar
    48    11    10   ar
    49    11    36    1
    50    10    35    1
