@<TRIPOS>MOLECULE
?
 57 62 0 0 0
SMALL
GASTEIGER

@<TRIPOS>ATOM
      1 N           0.6345    2.4918    2.8872 N.3     1  LIG1       -0.1088
      2 N           1.8978    2.8207    2.8014 N.pl3   1  LIG1       -0.1616
      3 N           2.3009    4.0473    2.6346 N.3     1  LIG1       -0.0922
      4 N           0.8435    5.7545    1.6415 N.pl3   1  LIG1       -0.3023
      5 N          -2.4844    2.8069    0.0993 N.1     1  LIG1       -0.1961
      6 C           1.0539    4.8462    2.7450 C.3     1  LIG1        0.1756
      7 C          -0.0358    5.2465    0.6109 C.3     1  LIG1        0.0323
      8 H           0.3807    5.3051   -0.2629 H       1  LIG1        0.0478
      9 H          -0.8732    5.7359    0.5951 H       1  LIG1        0.0478
     10 C          -0.0595    3.7416    2.5713 C.3     1  LIG1        0.1416
     11 C          -0.2589    3.7924    1.0155 C.3     1  LIG1        0.0911
     12 H           0.4664    3.2683    0.6154 H       1  LIG1        0.0493
     13 C           2.8923    1.7671    2.9286 C.ar    1  LIG1        0.0653
     14 C           2.4818    0.5015    3.2548 C.ar    1  LIG1       -0.0378
     15 H           1.5812    0.3102    3.3872 H       1  LIG1        0.0637
     16 C           3.4468   -0.4885    3.3829 C.ar    1  LIG1       -0.0599
     17 H           3.1902   -1.3546    3.6054 H       1  LIG1        0.0618
     18 C           4.7757   -0.2027    3.1828 C.ar    1  LIG1       -0.0616
     19 H           5.4142   -0.8742    3.2633 H       1  LIG1        0.0618
     20 C           5.1598    1.0745    2.8651 C.ar    1  LIG1       -0.0599
     21 H           6.0597    1.2670    2.7380 H       1  LIG1        0.0618
     22 C           4.2170    2.0759    2.7322 C.ar    1  LIG1       -0.0378
     23 H           4.4745    2.9427    2.5140 H       1  LIG1        0.0637
     24 C           1.0344    5.5447    4.1080 C.ar    1  LIG1       -0.0042
     25 C           1.8126    5.0821    5.1555 C.ar    1  LIG1       -0.0551
     26 H           2.3766    4.3540    5.0283 H       1  LIG1        0.0621
     27 C           1.7536    5.7037    6.3958 C.ar    1  LIG1       -0.0614
     28 H           2.2842    5.3958    7.0948 H       1  LIG1        0.0618
     29 C           0.9155    6.7723    6.5929 C.ar    1  LIG1       -0.0617
     30 H           0.8850    7.1909    7.4226 H       1  LIG1        0.0618
     31 C           0.1244    7.2223    5.5714 C.ar    1  LIG1       -0.0614
     32 H          -0.4540    7.9367    5.7125 H       1  LIG1        0.0618
     33 C           0.1847    6.6179    4.3305 C.ar    1  LIG1       -0.0551
     34 H          -0.3502    6.9326    3.6381 H       1  LIG1        0.0621
     35 C           1.5276    6.9628    1.4718 C.ar    1  LIG1        0.0314
     36 C           2.7297    7.2178    2.1304 C.ar    1  LIG1       -0.0406
     37 H           3.1052    6.5694    2.6809 H       1  LIG1        0.0636
     38 C           3.3608    8.4352    1.9642 C.ar    1  LIG1       -0.0600
     39 H           4.1631    8.5961    2.4063 H       1  LIG1        0.0618
     40 C           2.8263    9.4179    1.1556 C.ar    1  LIG1       -0.0616
     41 H           3.2509   10.2410    1.0659 H       1  LIG1        0.0618
     42 C           1.6569    9.1580    0.4868 C.ar    1  LIG1       -0.0600
     43 H           1.2977    9.8037   -0.0775 H       1  LIG1        0.0618
     44 C           1.0053    7.9476    0.6406 C.ar    1  LIG1       -0.0406
     45 H           0.2110    7.7910    0.1835 H       1  LIG1        0.0636
     46 C          -1.5154    3.2306    0.5249 C.1     1  LIG1        0.0699
     47 C          -1.2930    3.9351    3.4190 C.ar    1  LIG1       -0.0190
     48 C          -1.3951    3.2979    4.6471 C.ar    1  LIG1       -0.0565
     49 H          -0.7399    2.6911    4.9060 H       1  LIG1        0.0621
     50 C          -2.4607    3.5549    5.4911 C.ar    1  LIG1       -0.0614
     51 H          -2.5161    3.1168    6.3097 H       1  LIG1        0.0618
     52 C          -3.4347    4.4474    5.1327 C.ar    1  LIG1       -0.0617
     53 H          -4.1428    4.6250    5.7090 H       1  LIG1        0.0618
     54 C          -3.3562    5.0742    3.9240 C.ar    1  LIG1       -0.0614
     55 H          -4.0209    5.6748    3.6747 H       1  LIG1        0.0618
     56 C          -2.2984    4.8278    3.0636 C.ar    1  LIG1       -0.0565
     57 H          -2.2597    5.2628    2.2425 H       1  LIG1        0.0621
@<TRIPOS>BOND
     1     8     7    1
     2    43    42    1
     3     5    46    3
     4    45    44    1
     5    42    44   ar
     6    42    40   ar
     7    46    11    1
     8     9     7    1
     9     7    11    1
    10     7     4    1
    11    12    11    1
    12    44    35   ar
    13    11    10    1
    14    41    40    1
    15    40    38   ar
    16    35     4    1
    17    35    36   ar
    18     4     6    1
    19    38    36   ar
    20    38    39    1
    21    36    37    1
    22    57    56    1
    23    23    22    1
    24    10     6    1
    25    10     1    1
    26    10    47    1
    27     3     6    1
    28     3     2    1
    29    22    20   ar
    30    22    13   ar
    31    21    20    1
    32     6    24    1
    33     2     1    1
    34     2    13    1
    35    20    18   ar
    36    13    14   ar
    37    56    47   ar
    38    56    54   ar
    39    18    19    1
    40    18    16   ar
    41    14    16   ar
    42    14    15    1
    43    16    17    1
    44    47    48   ar
    45    34    33    1
    46    55    54    1
    47    54    52   ar
    48    24    33   ar
    49    24    25   ar
    50    33    31   ar
    51    48    49    1
    52    48    50   ar
    53    26    25    1
    54    52    50   ar
    55    52    53    1
    56    25    27   ar
    57    50    51    1
    58    31    32    1
    59    31    29   ar
    60    27    29   ar
    61    27    28    1
    62    29    30    1
