@<TRIPOS>MOLECULE
(+)-22,23-Bisnor-3-oxo-5\a-cholanic Acid Monohydrate
 62 64 0 0 0
SMALL
GASTEIGER

@<TRIPOS>ATOM
      1 O           3.1279    3.9629   -0.6228 O.2     1  LIG1       -0.2974
      2 O           2.0894    1.5661   12.4037 O.2     1  LIG1       -0.2507
      3 O           2.9123   -0.1844   11.3325 O.3     1  LIG1       -0.4804
      4 H           2.4681   -0.6458   12.0204 H       1  LIG1        0.2951
      5 O           1.7411   -1.8486   12.9556 O.3     2  HOH2       -0.4105
      6 H           1.9527   -2.5474   12.7665 H       0  HOH0        0.2052
      7 H           1.0557   -1.8997   13.3181 H       0  HOH0        0.2052
      8 C           4.3814    3.3727    2.7482 C.3     1  LIG1       -0.0404
      9 C           4.4199    4.0172    1.3562 C.3     1  LIG1        0.0063
     10 C           3.1343    3.9845    0.5950 C.2     1  LIG1        0.1337
     11 C           1.8747    4.0567    1.3799 C.3     1  LIG1        0.0092
     12 C           1.9026    3.3757    2.7577 C.3     1  LIG1       -0.0287
     13 C           0.6095    3.5929    3.5131 C.3     1  LIG1       -0.0491
     14 C           0.5958    2.8533    4.8444 C.3     1  LIG1       -0.0494
     15 C           1.8103    3.1870    5.7018 C.3     1  LIG1       -0.0344
     16 C           3.1147    2.9520    4.9085 C.3     1  LIG1       -0.0322
     17 C           3.1501    3.7742    3.5825 C.3     1  LIG1       -0.0254
     18 C           4.3599    3.1099    5.7898 C.3     1  LIG1       -0.0489
     19 C           4.2978    2.3303    7.1090 C.3     1  LIG1       -0.0468
     20 C           3.0362    2.6658    7.9044 C.3     1  LIG1       -0.0254
     21 C           1.8423    2.3722    6.9822 C.3     1  LIG1       -0.0322
     22 C           0.6284    2.4339    7.9079 C.3     1  LIG1       -0.0492
     23 C           1.1654    1.9152    9.2533 C.3     1  LIG1       -0.0487
     24 C           2.6840    1.7400    9.0994 C.3     1  LIG1       -0.0227
     25 C           3.0669    4.1319    8.3689 C.3     1  LIG1       -0.0590
     26 C           3.1825    5.2860    3.8728 C.3     1  LIG1       -0.0590
     27 C           3.4311    1.9374   10.4420 C.3     1  LIG1        0.0568
     28 C           4.9144    1.5846   10.3697 C.3     1  LIG1       -0.0520
     29 C           2.7539    1.1047   11.4966 C.2     1  LIG1        0.3078
     30 H           5.1827    3.6243    3.2323 H       1  LIG1        0.0275
     31 H           4.3890    2.4080    2.6465 H       1  LIG1        0.0275
     32 H           4.6934    4.9430    1.4553 H       1  LIG1        0.0342
     33 H           5.0987    3.5682    0.8293 H       1  LIG1        0.0342
     34 H           1.1653    3.6539    0.8553 H       1  LIG1        0.0344
     35 H           1.6477    4.9911    1.5062 H       1  LIG1        0.0344
     36 H           1.9723    2.4123    2.5924 H       1  LIG1        0.0310
     37 H          -0.1330    3.2863    2.9699 H       1  LIG1        0.0268
     38 H           0.4899    4.5421    3.6739 H       1  LIG1        0.0268
     39 H          -0.2105    3.0865    5.3299 H       1  LIG1        0.0268
     40 H           0.5771    1.8979    4.6774 H       1  LIG1        0.0268
     41 H           1.7635    4.1356    5.9430 H       1  LIG1        0.0306
     42 H           3.0961    2.0102    4.6382 H       1  LIG1        0.0309
     43 H           5.1351    2.8126    5.2886 H       1  LIG1        0.0268
     44 H           4.4826    4.0511    5.9897 H       1  LIG1        0.0268
     45 H           4.3139    1.3785    6.9199 H       1  LIG1        0.0271
     46 H           5.0789    2.5418    7.6433 H       1  LIG1        0.0271
     47 H           1.9310    1.4353    6.7087 H       1  LIG1        0.0309
     48 H          -0.0882    1.8701    7.5787 H       1  LIG1        0.0268
     49 H           0.3019    3.3437    7.9916 H       1  LIG1        0.0268
     50 H           0.9687    2.5499    9.9607 H       1  LIG1        0.0268
     51 H           0.7490    1.0671    9.4763 H       1  LIG1        0.0268
     52 H           2.8431    0.8173    8.8104 H       1  LIG1        0.0314
     53 H           2.2951    4.3127    8.9103 H       1  LIG1        0.0235
     54 H           3.0620    4.7105    7.6026 H       1  LIG1        0.0235
     55 H           3.8619    4.2886    8.8840 H       1  LIG1        0.0235
     56 H           2.4173    5.5271    4.4000 H       1  LIG1        0.0235
     57 H           3.1671    5.7714    3.0445 H       1  LIG1        0.0235
     58 H           3.9840    5.5025    4.3553 H       1  LIG1        0.0235
     59 H           3.3531    2.8798   10.6999 H       1  LIG1        0.0413
     60 H           5.3624    2.2020    9.7902 H       1  LIG1        0.0238
     61 H           5.0158    0.6939   10.0267 H       1  LIG1        0.0238
     62 H           5.2982    1.6345   11.2481 H       1  LIG1        0.0238
@<TRIPOS>BOND
     1     1    10    2
     2    10     9    1
     3    10    11    1
     4    33     9    1
     5    34    11    1
     6     9    32    1
     7     9     8    1
     8    11    35    1
     9    11    12    1
    10    36    12    1
    11    31     8    1
    12     8    30    1
    13     8    17    1
    14    12    13    1
    15    12    17    1
    16    37    13    1
    17    57    26    1
    18    13    38    1
    19    13    14    1
    20    17    26    1
    21    17    16    1
    22    26    58    1
    23    26    56    1
    24    42    16    1
    25    40    14    1
    26    14    39    1
    27    14    15    1
    28    16    15    1
    29    16    18    1
    30    43    18    1
    31    15    41    1
    32    15    21    1
    33    18    44    1
    34    18    19    1
    35    47    21    1
    36    45    19    1
    37    21    20    1
    38    21    22    1
    39    19    46    1
    40    19    20    1
    41    48    22    1
    42    54    25    1
    43    20    25    1
    44    20    24    1
    45    22    49    1
    46    22    23    1
    47    25    55    1
    48    25    53    1
    49    52    24    1
    50    24    23    1
    51    24    27    1
    52    23    51    1
    53    23    50    1
    54    60    28    1
    55    61    28    1
    56    28    27    1
    57    28    62    1
    58    27    59    1
    59    27    29    1
    60     3    29    1
    61     3     4    1
    62    29     2    2
    63     6     5    1
    64     5     7    1
