@<TRIPOS>MOLECULE
4-Acetyl-4-methyl-heptanedinitrile
 27 26 0 0 0
SMALL
GASTEIGER

@<TRIPOS>ATOM
      1 C          -0.7881    6.1995    6.6287 C.3     1  LIG1       -0.0055
      2 H          -0.0893    6.0351    5.9617 H       1  LIG1        0.0306
      3 H          -1.4415    6.8339    6.2675 H       1  LIG1        0.0306
      4 H          -1.2374    5.3565    6.8463 H       1  LIG1        0.0306
      5 C          -0.1703    6.7708    7.8686 C.2     1  LIG1        0.1362
      6 O          -0.0816    6.1023    8.8784 O.2     1  LIG1       -0.2971
      7 C           0.3451    8.2151    7.8356 C.3     1  LIG1        0.0277
      8 C          -0.8339    9.1538    7.4757 C.3     1  LIG1       -0.0281
      9 H          -0.5124   10.0898    7.4787 H       1  LIG1        0.0284
     10 H          -1.1446    8.9438    6.5592 H       1  LIG1        0.0284
     11 C          -2.0160    9.0275    8.4461 C.3     1  LIG1        0.0357
     12 H          -2.3266    8.0882    8.4630 H       1  LIG1        0.0418
     13 H          -1.7171    9.2659    9.3589 H       1  LIG1        0.0418
     14 C          -3.1265    9.8968    8.0587 C.1     1  LIG1        0.0625
     15 N          -3.9806   10.5722    7.7312 N.1     1  LIG1       -0.1966
     16 C           1.4076    8.3519    6.7191 C.3     1  LIG1       -0.0281
     17 H           0.9751    8.1925    5.8431 H       1  LIG1        0.0284
     18 H           1.7563    9.2778    6.7192 H       1  LIG1        0.0284
     19 C           2.5879    7.3734    6.8786 C.3     1  LIG1        0.0357
     20 H           2.9603    7.4558    7.7920 H       1  LIG1        0.0418
     21 H           2.2617    6.4458    6.7644 H       1  LIG1        0.0418
     22 C           3.6442    7.6375    5.9005 C.1     1  LIG1        0.0625
     23 N           4.4668    7.8646    5.1420 N.1     1  LIG1       -0.1966
     24 C           0.9429    8.6170    9.1918 C.3     1  LIG1       -0.0528
     25 H           1.2665    9.5406    9.1453 H       1  LIG1        0.0239
     26 H           1.6888    8.0209    9.4097 H       1  LIG1        0.0239
     27 H           0.2547    8.5464    9.8859 H       1  LIG1        0.0239
@<TRIPOS>BOND
     1    23    22    3
     2    17    16    1
     3    22    19    1
     4     2     1    1
     5     3     1    1
     6    10     8    1
     7     1     4    1
     8     1     5    1
     9    16    18    1
    10    16    19    1
    11    16     7    1
    12    21    19    1
    13    19    20    1
    14     8     9    1
    15     8     7    1
    16     8    11    1
    17    15    14    3
    18     7     5    1
    19     7    24    1
    20     5     6    2
    21    14    11    1
    22    11    12    1
    23    11    13    1
    24    25    24    1
    25    24    26    1
    26    24    27    1
