@<TRIPOS>MOLECULE
6,7-dihydroxy-1-(4-nitrophenyl)-1,2,3,4-tetrahydroisoquinolinium chloride
 37 38 0 0 0
SMALL
GASTEIGER

@<TRIPOS>ATOM
      1 CL          5.4033    6.0672    1.3097 Cl      1  LIG1        0.0000
      2 N           4.9330    4.0329    4.0957 N.4     2  LIG2        0.2360
      3 H           5.6836    3.9189    4.6851 H       2  LIG2        0.2023
      4 H           5.1963    4.5304    3.2855 H       2  LIG2        0.2023
      5 C           3.8198    4.7355    4.8290 C.3     2  LIG2       -0.0287
      6 H           3.3890    4.0205    5.4916 H       2  LIG2        0.0817
      7 H           4.2412    5.5360    5.2900 H       2  LIG2        0.0817
      8 C           2.7972    5.1411    3.7979 C.3     2  LIG2        0.0132
      9 H           1.9208    5.4629    4.3352 H       2  LIG2        0.0365
     10 H           3.1953    5.8759    3.2879 H       2  LIG2        0.0365
     11 C           2.4475    4.0126    2.8559 C.ar    2  LIG2       -0.0298
     12 C           1.3282    4.1281    2.0483 C.ar    2  LIG2       -0.0127
     13 H           0.7614    4.9323    2.1089 H       2  LIG2        0.0658
     14 C           0.9327    3.0982    1.2225 C.ar    2  LIG2        0.1585
     15 O          -0.1963    3.2911    0.4563 O.3     2  LIG2       -0.5033
     16 H          -0.3587    2.6083    0.0320 H       2  LIG2        0.2923
     17 C           1.6598    1.9167    1.1881 C.ar    2  LIG2        0.1587
     18 O           1.1886    0.9396    0.3524 O.3     2  LIG2       -0.5033
     19 H           1.4652    0.2097    0.6025 H       2  LIG2        0.2923
     20 C           2.7999    1.8069    1.9539 C.ar    2  LIG2       -0.0074
     21 H           3.3133    1.0262    1.8812 H       2  LIG2        0.0660
     22 C           3.2131    2.8523    2.7829 C.ar    2  LIG2        0.0118
     23 C           4.4538    2.6739    3.6271 C.3     2  LIG2        0.0294
     24 H           4.2669    2.1778    4.4562 H       2  LIG2        0.0957
     25 C           5.6083    1.9609    2.9568 C.ar    2  LIG2        0.0049
     26 C           6.3277    2.5438    1.9274 C.ar    2  LIG2       -0.0507
     27 H           6.0499    3.4550    1.5763 H       2  LIG2        0.0623
     28 C           7.4173    1.8854    1.3984 C.ar    2  LIG2       -0.0310
     29 H           7.8496    2.2589    0.7591 H       2  LIG2        0.0640
     30 C           7.7378    0.6438    1.8717 C.ar    2  LIG2        0.1262
     31 N           8.8762   -0.0953    1.2940 N.pl3   2  LIG2        0.0564
     32 O           8.8843   -1.3218    1.4314 O.2     2  LIG2       -0.1261
     33 O           9.7124    0.5287    0.6927 O.2     2  LIG2       -0.1261
     34 C           7.0279    0.0305    2.8680 C.ar    2  LIG2       -0.0310
     35 H           7.3047   -0.8530    3.1432 H       2  LIG2        0.0640
     36 C           5.9674    0.7074    3.4255 C.ar    2  LIG2       -0.0507
     37 H           5.4944    0.2653    4.1751 H       2  LIG2        0.0623
@<TRIPOS>BOND
     1    16    15    1
     2    18    19    1
     3    18    17    1
     4    15    14    1
     5    33    31    2
     6    29    28    1
     7    17    14   ar
     8    17    20   ar
     9    14    12   ar
    10    31    32    2
    11    31    30    1
    12    28    30   ar
    13    28    26   ar
    14    27    26    1
    15    30    34   ar
    16    21    20    1
    17    26    25   ar
    18    20    22   ar
    19    12    13    1
    20    12    11   ar
    21    22    11   ar
    22    22    23    1
    23    11     8    1
    24    34    35    1
    25    34    36   ar
    26    25    36   ar
    27    25    23    1
    28     4     2    1
    29    10     8    1
    30    36    37    1
    31    23     2    1
    32    23    24    1
    33     8     9    1
    34     8     5    1
    35     2     3    1
    36     2     5    1
    37     5     7    1
    38     5     6    1
