@<TRIPOS>MOLECULE
E-2,5-Bis(dimethyl)-3,4-diisopropyl-hexa-3-ene
 48 47 0 0 0
SMALL
GASTEIGER

@<TRIPOS>ATOM
      1 C           8.0189    6.3424    1.0854 C.3     1  LIG1       -0.0563
      2 H           7.5072    7.0457    0.6627 H       1  LIG1        0.0238
      3 H           8.1663    5.6921    0.3868 H       1  LIG1        0.0238
      4 H           8.8631    6.7618    1.3268 H       1  LIG1        0.0238
      5 C           7.3440    5.6650    2.3048 C.3     1  LIG1       -0.0162
      6 C           7.2783    6.6072    3.5661 C.2     1  LIG1       -0.0616
      7 C           6.8250    7.8978    3.5193 C.2     1  LIG1       -0.0616
      8 C           6.9090    8.8889    4.7389 C.3     1  LIG1       -0.0162
      9 C           5.8193    8.5824    5.7913 C.3     1  LIG1       -0.0563
     10 H           5.8396    7.6619    6.1535 H       1  LIG1        0.0238
     11 H           4.9223    8.7389    5.3984 H       1  LIG1        0.0238
     12 H           5.9451    9.1802    6.5418 H       1  LIG1        0.0238
     13 C           5.9424    5.1233    1.9443 C.3     1  LIG1       -0.0563
     14 H           5.2552    5.8353    1.8018 H       1  LIG1        0.0238
     15 H           5.5615    4.5790    2.6722 H       1  LIG1        0.0238
     16 H           6.0147    4.5321    1.1434 H       1  LIG1        0.0238
     17 C           8.2299    4.4139    2.5204 C.3     1  LIG1       -0.0563
     18 H           7.9120    3.8477    3.2581 H       1  LIG1        0.0238
     19 H           9.1534    4.6728    2.6579 H       1  LIG1        0.0238
     20 H           8.1702    3.8655    1.7009 H       1  LIG1        0.0238
     21 C           6.6955   10.3670    4.3353 C.3     1  LIG1       -0.0563
     22 H           5.8353   10.5400    3.9108 H       1  LIG1        0.0238
     23 H           7.4458   10.6944    3.7444 H       1  LIG1        0.0238
     24 H           6.7277   10.9127    5.1595 H       1  LIG1        0.0238
     25 C           8.3163    8.9336    5.3851 C.3     1  LIG1       -0.0563
     26 H           8.6005    8.1146    5.8279 H       1  LIG1        0.0238
     27 H           8.3479    9.6668    6.0369 H       1  LIG1        0.0238
     28 H           8.9884    9.1357    4.7200 H       1  LIG1        0.0238
     29 C           6.6621    4.8739    5.3647 C.3     1  LIG1       -0.0589
     30 H           5.7175    5.1589    5.2832 H       1  LIG1        0.0235
     31 H           6.7895    4.6503    6.3427 H       1  LIG1        0.0235
     32 H           6.7558    4.0356    4.8437 H       1  LIG1        0.0235
     33 C           9.0996    5.5769    5.1747 C.3     1  LIG1       -0.0589
     34 H           9.7517    6.1566    4.6944 H       1  LIG1        0.0235
     35 H           9.2837    4.6719    4.9106 H       1  LIG1        0.0235
     36 H           9.3012    5.6582    6.1350 H       1  LIG1        0.0235
     37 C           7.6343    5.9867    4.9304 C.3     1  LIG1       -0.0248
     38 H           7.4600    6.6655    5.5690 H       1  LIG1        0.0341
     39 C           6.0823    8.3921    2.2636 C.3     1  LIG1       -0.0248
     40 H           6.0657    7.6311    1.6781 H       1  LIG1        0.0341
     41 C           4.5868    8.6537    2.5172 C.3     1  LIG1       -0.0589
     42 H           4.1385    7.8861    2.9779 H       1  LIG1        0.0235
     43 H           4.1084    8.8038    1.6468 H       1  LIG1        0.0235
     44 H           4.4207    9.4377    3.0760 H       1  LIG1        0.0235
     45 C           6.7203    9.5296    1.4388 C.3     1  LIG1       -0.0589
     46 H           7.7108    9.4854    1.4548 H       1  LIG1        0.0235
     47 H           6.4714   10.4664    1.7421 H       1  LIG1        0.0235
     48 H           6.4740    9.4188    0.4892 H       1  LIG1        0.0235
@<TRIPOS>BOND
     1     3     1    1
     2    48    45    1
     3     2     1    1
     4     1     4    1
     5     1     5    1
     6    16    13    1
     7    45    46    1
     8    45    47    1
     9    45    39    1
    10    43    41    1
    11    40    39    1
    12    20    17    1
    13    14    13    1
    14    13     5    1
    15    13    15    1
    16    39    41    1
    17    39     7    1
    18     5    17    1
    19     5     6    1
    20    41    42    1
    21    41    44    1
    22    17    19    1
    23    17    18    1
    24     7     6    2
    25     7     8    1
    26     6    37    1
    27    23    21    1
    28    22    21    1
    29    21     8    1
    30    21    24    1
    31    34    33    1
    32    28    25    1
    33     8    25    1
    34     8     9    1
    35    32    29    1
    36    35    33    1
    37    37    33    1
    38    37    29    1
    39    37    38    1
    40    33    36    1
    41    30    29    1
    42    29    31    1
    43    25    26    1
    44    25    27    1
    45    11     9    1
    46     9    10    1
    47     9    12    1
