@<TRIPOS>MOLECULE
3,4--Bis(1--adamantyl)--1,2--dithiete
 108 120 0 0 0
SMALL
GASTEIGER

@<TRIPOS>ATOM
      1 S         -18.7701   -1.7186   -4.7957 S.2     1  LIG1       -0.0552
      2 S         -18.1433   -2.4171   -2.9317 S.2     1  LIG1       -0.0552
      3 S         -12.1783   -8.8502   -4.8176 S.2     2  LIG2       -0.0552
      4 S         -11.6041   -8.1866   -2.9275 S.2     2  LIG2       -0.0552
      5 C         -18.1706   -3.3501   -5.2066 C.ar    1  LIG1        0.0135
      6 C         -17.7622   -3.8033   -3.9881 C.ar    1  LIG1        0.0135
      7 C         -18.3167   -3.8661   -6.6374 C.3     1  LIG1        0.0040
      8 C         -17.0968   -5.0519   -3.4248 C.3     1  LIG1        0.0040
      9 C         -18.4354   -2.6670   -7.6028 C.3     1  LIG1       -0.0400
     10 H         -17.6395   -2.1122   -7.5821 H       1  LIG1        0.0277
     11 H         -19.2313   -2.1256   -7.2902 H       1  LIG1        0.0277
     12 C         -19.6162   -4.7123   -6.7597 C.3     1  LIG1       -0.0400
     13 H         -20.3794   -4.1174   -6.4916 H       1  LIG1        0.0277
     14 H         -19.5053   -5.5077   -6.1567 H       1  LIG1        0.0277
     15 C         -17.0994   -4.7097   -7.1015 C.3     1  LIG1       -0.0400
     16 H         -17.0524   -5.5345   -6.6032 H       1  LIG1        0.0277
     17 H         -16.3479   -4.1843   -7.0712 H       1  LIG1        0.0277
     18 C         -18.6481   -3.1322   -9.0511 C.3     1  LIG1       -0.0397
     19 H         -18.7746   -2.3528   -9.6172 H       1  LIG1        0.0301
     20 C         -19.7962   -5.2043   -8.2126 C.3     1  LIG1       -0.0397
     21 H         -20.6143   -5.7617   -8.3099 H       1  LIG1        0.0301
     22 C         -17.3134   -5.1882   -8.5482 C.3     1  LIG1       -0.0397
     23 H         -16.5566   -5.6815   -8.7864 H       1  LIG1        0.0301
     24 C         -19.9176   -3.9944   -9.1535 C.3     1  LIG1       -0.0473
     25 H         -20.6664   -3.4758   -8.9367 H       1  LIG1        0.0271
     26 H         -20.1185   -4.2912  -10.1968 H       1  LIG1        0.0271
     27 C         -18.5841   -6.0478   -8.6297 C.3     1  LIG1       -0.0473
     28 H         -18.5398   -6.8178   -7.9857 H       1  LIG1        0.0271
     29 H         -18.6572   -6.3900   -9.5013 H       1  LIG1        0.0271
     30 C         -17.4321   -3.9851   -9.4884 C.3     1  LIG1       -0.0473
     31 H         -16.6219   -3.4089   -9.4197 H       1  LIG1        0.0271
     32 H         -17.6265   -4.2244  -10.4093 H       1  LIG1        0.0271
     33 C         -17.1425   -5.0251   -1.8829 C.3     1  LIG1       -0.0400
     34 H         -16.6349   -4.2110   -1.5542 H       1  LIG1        0.0277
     35 H         -17.9657   -5.0131   -1.5907 H       1  LIG1        0.0277
     36 C         -15.6068   -5.1000   -3.8512 C.3     1  LIG1       -0.0400
     37 H         -15.5651   -5.0800   -4.8150 H       1  LIG1        0.0277
     38 H         -15.2259   -4.3046   -3.5184 H       1  LIG1        0.0277
     39 C         -17.8235   -6.3486   -3.8872 C.3     1  LIG1       -0.0400
     40 H         -18.7616   -6.2163   -3.5807 H       1  LIG1        0.0277
     41 H         -17.8483   -6.4302   -4.8687 H       1  LIG1        0.0277
     42 C         -16.4418   -6.2764   -1.2906 C.3     1  LIG1       -0.0397
     43 H         -16.4131   -6.2430   -0.2769 H       1  LIG1        0.0301
     44 C         -14.9232   -6.3473   -3.2853 C.3     1  LIG1       -0.0397
     45 H         -13.9733   -6.3633   -3.5571 H       1  LIG1        0.0301
     46 C         -17.1111   -7.5812   -3.3175 C.3     1  LIG1       -0.0397
     47 H         -17.5234   -8.4488   -3.6794 H       1  LIG1        0.0301
     48 C         -14.9740   -6.3018   -1.7646 C.3     1  LIG1       -0.0473
     49 H         -14.5213   -7.0852   -1.3589 H       1  LIG1        0.0271
     50 H         -14.5474   -5.4810   -1.3911 H       1  LIG1        0.0271
     51 C         -15.6525   -7.5985   -3.7911 C.3     1  LIG1       -0.0473
     52 H         -15.5912   -7.6333   -4.8451 H       1  LIG1        0.0271
     53 H         -15.1737   -8.3953   -3.5463 H       1  LIG1        0.0271
     54 C         -17.1568   -7.5437   -1.7891 C.3     1  LIG1       -0.0473
     55 H         -16.7654   -8.3285   -1.4361 H       1  LIG1        0.0271
     56 H         -18.0570   -7.5397   -1.4920 H       1  LIG1        0.0271
     57 C         -11.5870   -7.2002   -5.1817 C.ar    2  LIG2        0.0135
     58 C         -11.2139   -6.7710   -3.9439 C.ar    2  LIG2        0.0135
     59 C         -11.7332   -6.6494   -6.5820 C.3     2  LIG2        0.0040
     60 C         -10.5876   -5.5211   -3.3325 C.3     2  LIG2        0.0040
     61 C         -13.0731   -5.8647   -6.7048 C.3     2  LIG2       -0.0400
     62 H         -13.7776   -6.4970   -6.4380 H       2  LIG2        0.0277
     63 H         -13.0079   -5.0933   -6.0301 H       2  LIG2        0.0277
     64 C         -11.7749   -7.8231   -7.5948 C.3     2  LIG2       -0.0400
     65 H         -10.8682   -8.3285   -7.4834 H       2  LIG2        0.0277
     66 H         -12.5643   -8.4621   -7.3288 H       2  LIG2        0.0277
     67 C         -10.5589   -5.7283   -7.0060 C.3     2  LIG2       -0.0400
     68 H         -10.5289   -4.8794   -6.3972 H       2  LIG2        0.0277
     69 H          -9.7722   -6.2831   -6.9703 H       2  LIG2        0.0277
     70 C         -13.2675   -5.3353   -8.1319 C.3     2  LIG2       -0.0397
     71 H         -14.1821   -4.9062   -8.1467 H       2  LIG2        0.0301
     72 C         -11.9993   -7.3004   -9.0312 C.3     2  LIG2       -0.0397
     73 H         -11.9902   -8.1279   -9.5850 H       2  LIG2        0.0301
     74 C         -10.7807   -5.2016   -8.4393 C.3     2  LIG2       -0.0397
     75 H         -10.0462   -4.5452   -8.6533 H       2  LIG2        0.0301
     76 C         -13.3132   -6.5197   -9.1149 C.3     2  LIG2       -0.0473
     77 H         -14.0386   -7.0317   -8.8680 H       2  LIG2        0.0271
     78 H         -13.4384   -6.1762  -10.0959 H       2  LIG2        0.0271
     79 C         -10.8316   -6.3874   -9.4178 C.3     2  LIG2       -0.0473
     80 H         -10.9595   -5.9890  -10.3321 H       2  LIG2        0.0271
     81 H          -9.8374   -6.8178   -9.4283 H       2  LIG2        0.0271
     82 C         -12.0880   -4.4155   -8.4996 C.3     2  LIG2       -0.0473
     83 H         -12.2903   -4.0372   -9.4090 H       2  LIG2        0.0271
     84 H         -12.1207   -3.6495   -7.9256 H       2  LIG2        0.0271
     85 C          -9.1029   -5.4075   -3.7610 C.3     2  LIG2       -0.0400
     86 H          -9.0155   -5.4275   -4.8108 H       2  LIG2        0.0277
     87 H          -8.7023   -6.2163   -3.4669 H       2  LIG2        0.0277
     88 C         -10.6255   -5.6133   -1.7897 C.3     2  LIG2       -0.0400
     89 H         -10.2158   -6.4302   -1.4962 H       2  LIG2        0.0277
     90 H         -11.5857   -5.7484   -1.4898 H       2  LIG2        0.0277
     91 C         -11.3496   -4.2418   -3.7378 C.3     2  LIG2       -0.0400
     92 H         -12.2381   -4.3500   -3.4433 H       2  LIG2        0.0277
     93 H         -11.3979   -4.1562   -4.7506 H       2  LIG2        0.0277
     94 C          -8.4584   -4.1682   -3.1342 C.3     2  LIG2       -0.0397
     95 H          -7.5803   -4.1174   -3.4283 H       2  LIG2        0.0301
     96 C          -9.9575   -4.3875   -1.1571 C.3     2  LIG2       -0.0397
     97 H         -10.0201   -4.5185   -0.2469 H       2  LIG2        0.0301
     98 C         -10.6724   -3.0105   -3.1129 C.3     2  LIG2       -0.0397
     99 H         -11.1291   -2.1790   -3.3832 H       2  LIG2        0.0301
    100 C          -8.4988   -4.2832   -1.6079 C.3     2  LIG2       -0.0473
    101 H          -8.0370   -5.1067   -1.3245 H       2  LIG2        0.0271
    102 H          -8.0761   -3.4357   -1.1871 H       2  LIG2        0.0271
    103 C         -10.7233   -3.1242   -1.5843 C.3     2  LIG2       -0.0473
    104 H         -11.6640   -3.1549   -1.2279 H       2  LIG2        0.0271
    105 H         -10.3071   -2.3395   -1.1807 H       2  LIG2        0.0271
    106 C          -9.2229   -2.9263   -3.5850 C.3     2  LIG2       -0.0473
    107 H          -9.2503   -2.8474   -4.6540 H       2  LIG2        0.0271
    108 H          -8.8198   -2.1122   -3.2909 H       2  LIG2        0.0271
@<TRIPOS>BOND
     1    32    30    1
     2    80    79    1
     3    26    24    1
     4    78    76    1
     5    19    18    1
     6    73    72    1
     7    29    27    1
     8    30    31    1
     9    30    18    1
    10    30    22    1
    11    81    79    1
    12    79    72    1
    13    79    74    1
    14    83    82    1
    15    24    18    1
    16    24    25    1
    17    24    20    1
    18    76    72    1
    19    76    77    1
    20    76    70    1
    21    18     9    1
    22    72    64    1
    23    23    22    1
    24    75    74    1
    25    27    22    1
    26    27    20    1
    27    27    28    1
    28    22    15    1
    29    82    74    1
    30    82    70    1
    31    82    84    1
    32    74    67    1
    33    21    20    1
    34    20    12    1
    35    71    70    1
    36    70    61    1
    37     9    10    1
    38     9    11    1
    39     9     7    1
    40    64    65    1
    41    64    66    1
    42    64    59    1
    43    15    17    1
    44    15     7    1
    45    15    16    1
    46    67    69    1
    47    67    59    1
    48    67    68    1
    49    12     7    1
    50    12    13    1
    51    12    14    1
    52    61    59    1
    53    61    62    1
    54    61    63    1
    55     7     5    1
    56    59    57    1
    57     5     1   ar
    58     5     6   ar
    59    57     3   ar
    60    57    58   ar
    61    41    39    1
    62    52    51    1
    63     3     4   ar
    64    37    36    1
    65    86    85    1
    66     1     2   ar
    67    93    91    1
    68   107   106    1
    69     6     8    1
    70     6     2   ar
    71    58    60    1
    72    58     4   ar
    73    39    40    1
    74    39     8    1
    75    39    46    1
    76    36    38    1
    77    36     8    1
    78    36    44    1
    79    51    53    1
    80    51    46    1
    81    51    44    1
    82    85    87    1
    83    85    60    1
    84    85    94    1
    85    91    92    1
    86    91    60    1
    87    91    98    1
    88    47    46    1
    89   106   108    1
    90   106    94    1
    91   106    98    1
    92    45    44    1
    93    95    94    1
    94     8    33    1
    95    99    98    1
    96    60    88    1
    97    46    54    1
    98    44    48    1
    99    94   100    1
   100    98   103    1
   101    33    35    1
   102    33    34    1
   103    33    42    1
   104    88    89    1
   105    88    90    1
   106    88    96    1
   107    54    56    1
   108    54    55    1
   109    54    42    1
   110    48    50    1
   111    48    49    1
   112    48    42    1
   113   100   101    1
   114   100   102    1
   115   100    96    1
   116   103   104    1
   117   103   105    1
   118   103    96    1
   119    42    43    1
   120    96    97    1
