@<TRIPOS>MOLECULE
(1R,2R)-Cyclopentane-1,2-diyl-bis[(4'S,5'S)-4',5'-diisopropoxycarbonyl-  1'3',2'-dioxaphospholane]
 79 81 0 0 0
SMALL
GASTEIGER

@<TRIPOS>ATOM
      1 P           2.5071    0.0000   -5.2840 P.3     1  LIG1        0.1779
      2 P           6.1733   -0.2020   -3.4080 P.3     1  LIG1        0.1779
      3 O           2.8424    1.5524   -4.8345 O.3     1  LIG1       -0.3148
      4 O           2.4193    0.3716   -6.8974 O.3     1  LIG1       -0.3148
      5 O           2.5756    4.2302   -4.9970 O.2     1  LIG1       -0.2478
      6 O           4.1244    4.3362   -6.6127 O.3     1  LIG1       -0.4600
      7 O           5.0908    0.7273   -7.9607 O.2     1  LIG1       -0.2478
      8 O           3.9421    2.0621   -9.3240 O.3     1  LIG1       -0.4600
      9 O           5.9028    1.3897   -3.7451 O.3     1  LIG1       -0.3148
     10 O           6.2141    0.0324   -1.7728 O.3     1  LIG1       -0.3148
     11 O           6.3859    4.0222   -3.3266 O.2     1  LIG1       -0.2478
     12 O           4.8799    4.0736   -1.6561 O.3     1  LIG1       -0.4600
     13 O           3.6045    0.3962   -0.6502 O.2     1  LIG1       -0.2478
     14 O           4.7353    1.7733    0.7158 O.3     1  LIG1       -0.4600
     15 C           4.1383   -0.8154   -5.1614 C.3     1  LIG1        0.0398
     16 H           4.8305   -0.2871   -5.6526 H       1  LIG1        0.0400
     17 C           4.5255   -0.9545   -3.6580 C.3     1  LIG1        0.0398
     18 H           3.8361   -0.5512   -3.0562 H       1  LIG1        0.0400
     19 C           4.6818   -2.4849   -3.4191 C.3     1  LIG1       -0.0414
     20 H           5.4286   -2.6698   -2.7958 H       1  LIG1        0.0273
     21 H           3.8495   -2.8706   -3.0445 H       1  LIG1        0.0273
     22 C           4.9699   -3.0555   -4.7905 C.3     1  LIG1       -0.0516
     23 H           4.7486   -4.0188   -4.8273 H       1  LIG1        0.0266
     24 H           5.9214   -2.9322   -5.0320 H       1  LIG1        0.0266
     25 C           4.0610   -2.2507   -5.7173 C.3     1  LIG1       -0.0414
     26 H           3.1331   -2.5923   -5.6877 H       1  LIG1        0.0273
     27 H           4.3879   -2.2859   -6.6513 H       1  LIG1        0.0273
     28 C           3.5573    2.2137   -5.8727 C.3     1  LIG1        0.1981
     29 H           4.5320    2.0059   -5.7927 H       1  LIG1        0.0750
     30 C           3.0091    1.6396   -7.2099 C.3     1  LIG1        0.1981
     31 H           2.3245    2.2560   -7.5997 H       1  LIG1        0.0750
     32 C           3.3452    3.7124   -5.7469 C.2     1  LIG1        0.3402
     33 C           4.1261    5.8134   -6.6046 C.3     1  LIG1        0.0976
     34 H           3.1793    6.1357   -6.5759 H       1  LIG1        0.0728
     35 C           4.7274    6.2149   -7.9086 C.3     1  LIG1       -0.0280
     36 H           4.5964    7.1765   -8.0470 H       1  LIG1        0.0265
     37 H           4.2950    5.7183   -8.6343 H       1  LIG1        0.0265
     38 H           5.6865    6.0230   -7.9006 H       1  LIG1        0.0265
     39 C           4.8390    6.3030   -5.3724 C.3     1  LIG1       -0.0280
     40 H           4.3690    5.9772   -4.5740 H       1  LIG1        0.0265
     41 H           4.8517    7.2821   -5.3706 H       1  LIG1        0.0265
     42 H           5.7587    5.9666   -5.3706 H       1  LIG1        0.0265
     43 C           4.1481    1.4018   -8.2104 C.2     1  LIG1        0.3402
     44 C           4.9946    1.9636  -10.3712 C.3     1  LIG1        0.0976
     45 H           5.5942    1.1870  -10.1799 H       1  LIG1        0.0728
     46 C           4.2826    1.7505  -11.6663 C.3     1  LIG1       -0.0280
     47 H           4.9367    1.7171  -12.3964 H       1  LIG1        0.0265
     48 H           3.6589    2.4902  -11.8217 H       1  LIG1        0.0265
     49 H           3.7871    0.9070  -11.6322 H       1  LIG1        0.0265
     50 C           5.7833    3.2351  -10.3443 C.3     1  LIG1       -0.0280
     51 H           6.4758    3.2070  -11.0376 H       1  LIG1        0.0265
     52 H           6.2092    3.3373   -9.4668 H       1  LIG1        0.0265
     53 H           5.1840    3.9942  -10.5077 H       1  LIG1        0.0265
     54 C           5.2272    2.0200   -2.6548 C.3     1  LIG1        0.1981
     55 H           4.2381    1.9143   -2.7599 H       1  LIG1        0.0750
     56 C           5.7018    1.3015   -1.3669 C.3     1  LIG1        0.1981
     57 H           6.4227    1.8351   -0.9250 H       1  LIG1        0.0750
     58 C           5.5908    3.4923   -2.6180 C.2     1  LIG1        0.3402
     59 C           5.1867    5.4805   -1.3364 C.3     1  LIG1        0.0976
     60 H           5.4277    5.9789   -2.1698 H       1  LIG1        0.0728
     61 C           3.9075    6.0388   -0.7454 C.3     1  LIG1       -0.0280
     62 H           4.0453    6.9810   -0.5119 H       1  LIG1        0.0265
     63 H           3.6658    5.5299    0.0629 H       1  LIG1        0.0265
     64 H           3.1848    5.9666   -1.4028 H       1  LIG1        0.0265
     65 C           6.3229    5.4964   -0.3862 C.3     1  LIG1       -0.0280
     66 H           6.5251    6.4210   -0.1347 H       1  LIG1        0.0265
     67 H           7.1091    5.0949   -0.8110 H       1  LIG1        0.0265
     68 H           6.0862    4.9822    0.4140 H       1  LIG1        0.0265
     69 C           4.5434    1.0831   -0.3952 C.2     1  LIG1        0.3402
     70 C           3.6755    1.6854    1.7432 C.3     1  LIG1        0.0976
     71 H           2.7774    1.6713    1.3031 H       1  LIG1        0.0728
     72 C           3.8171    2.9234    2.5668 C.3     1  LIG1       -0.0280
     73 H           3.3068    2.8248    3.3948 H       1  LIG1        0.0265
     74 H           3.4699    3.6913    2.0656 H       1  LIG1        0.0265
     75 H           4.7607    3.0678    2.7841 H       1  LIG1        0.0265
     76 C           3.8776    0.4191    2.5183 C.3     1  LIG1       -0.0280
     77 H           3.1801    0.3434    3.2062 H       1  LIG1        0.0265
     78 H           4.7588    0.4350    2.9458 H       1  LIG1        0.0265
     79 H           3.8195   -0.3469    1.9112 H       1  LIG1        0.0265
@<TRIPOS>BOND
     1    47    46    1
     2    48    46    1
     3    46    49    1
     4    46    44    1
     5    51    50    1
     6    53    50    1
     7    44    50    1
     8    44    45    1
     9    44     8    1
    10    50    52    1
    11     8    43    1
    12    37    35    1
    13    43     7    2
    14    43    30    1
    15    36    35    1
    16    35    38    1
    17    35    33    1
    18    31    30    1
    19    30     4    1
    20    30    28    1
    21     4     1    1
    22    27    25    1
    23     6    33    1
    24     6    32    1
    25    33    34    1
    26    33    39    1
    27    28    29    1
    28    28    32    1
    29    28     3    1
    30    32     5    2
    31    25    26    1
    32    25    15    1
    33    25    22    1
    34    16    15    1
    35    39    41    1
    36    39    42    1
    37    39    40    1
    38     1    15    1
    39     1     3    1
    40    15    17    1
    41    24    22    1
    42    23    22    1
    43    22    19    1
    44     9     2    1
    45     9    54    1
    46    17    19    1
    47    17     2    1
    48    17    18    1
    49    19    21    1
    50    19    20    1
    51     2    10    1
    52    11    58    2
    53    55    54    1
    54    54    58    1
    55    54    56    1
    56    58    12    1
    57    60    59    1
    58    10    56    1
    59    12    59    1
    60    64    61    1
    61    56    57    1
    62    56    69    1
    63    59    61    1
    64    59    65    1
    65    67    65    1
    66    61    62    1
    67    61    63    1
    68    13    69    2
    69    69    14    1
    70    65    66    1
    71    65    68    1
    72    14    70    1
    73    71    70    1
    74    70    76    1
    75    70    72    1
    76    79    76    1
    77    74    72    1
    78    76    78    1
    79    76    77    1
    80    72    75    1
    81    72    73    1
