@<TRIPOS>MOLECULE
1,3-bis(5-methyl-6-methylthio-4-oxo-1H-pyrazolo[3,4-d]pyrimidin-1-yl)propane
 49 52 0 0 0
SMALL
GASTEIGER

@<TRIPOS>ATOM
      1 S           2.7060    0.7198    4.6472 S.3     1  LIG1       -0.0910
      2 S          -0.5285   -1.0947    1.1894 S.3     1  LIG1       -0.0910
      3 N           2.8794   -0.8002    2.4804 N.ar    1  LIG1       -0.2903
      4 N          -0.6545   -2.4633    3.4522 N.ar    1  LIG1       -0.2038
      5 N          -0.6504   -3.5113    5.6078 N.ar    1  LIG1       -0.2462
      6 N           2.5128   -1.9173    4.5450 N.ar    1  LIG1       -0.2038
      7 O           3.0425   -1.8694    0.4606 O.2     1  LIG1       -0.2668
      8 O          -1.2141    1.0222    5.5804 O.2     1  LIG1       -0.2668
      9 N          -0.9043   -0.0995    3.6125 N.ar    1  LIG1       -0.2903
     10 C           2.5134   -3.0416    3.7993 C.ar    1  LIG1        0.1663
     11 C           2.7061   -3.1475    2.4356 C.ar    1  LIG1        0.1030
     12 N           2.3233   -4.2894    4.2757 N.ar    1  LIG1       -0.2462
     13 C           2.6988   -0.8334    3.8448 C.ar    1  LIG1        0.1732
     14 C          -1.0520   -0.0451    5.0249 C.ar    1  LIG1        0.2652
     15 N           2.3803   -5.2177    3.2722 N.ar    1  LIG1       -0.1770
     16 C           3.0741    0.4844    1.7765 C.3     1  LIG1        0.0171
     17 H           2.7417    0.4107    0.8788 H       1  LIG1        0.0457
     18 H           4.0100    0.6980    1.7561 H       1  LIG1        0.0457
     19 H           2.5980    1.1778    2.2394 H       1  LIG1        0.0457
     20 C          -0.7128   -1.2791    2.9205 C.ar    1  LIG1        0.1732
     21 C           2.8921   -1.9642    1.6744 C.ar    1  LIG1        0.2652
     22 C          -0.9622   -1.3353    5.6134 C.ar    1  LIG1        0.1030
     23 C           2.6157   -4.5279    2.1782 C.ar    1  LIG1        0.0639
     24 H           2.7111   -4.9073    1.3339 H       1  LIG1        0.0856
     25 C          -0.7580   -2.4375    4.8052 C.ar    1  LIG1        0.1663
     26 C           0.8228   -5.4865    5.8441 C.3     1  LIG1       -0.0136
     27 H           0.9667   -6.3678    5.4659 H       1  LIG1        0.0301
     28 H           0.6664   -5.5998    6.7951 H       1  LIG1        0.0301
     29 N          -0.7776   -3.1521    6.9233 N.ar    1  LIG1       -0.1770
     30 C          -0.9697   -1.8528    6.9206 C.ar    1  LIG1        0.0639
     31 H          -1.0935   -1.3408    7.6880 H       1  LIG1        0.0856
     32 C           2.0886   -4.6725    5.6589 C.3     1  LIG1        0.0454
     33 H           2.0306   -3.8713    6.2035 H       1  LIG1        0.0510
     34 H           2.8453   -5.1900    5.9759 H       1  LIG1        0.0510
     35 C          -0.9326    1.2008    2.9142 C.3     1  LIG1        0.0171
     36 H          -0.0342    1.5038    2.7635 H       1  LIG1        0.0457
     37 H          -1.4015    1.8436    3.4525 H       1  LIG1        0.0457
     38 H          -1.3812    1.1014    2.0715 H       1  LIG1        0.0457
     39 C          -0.4216   -4.8926    5.2195 C.3     1  LIG1        0.0454
     40 H          -0.3436   -4.9405    4.2544 H       1  LIG1        0.0510
     41 H          -1.1906   -5.4248    5.4816 H       1  LIG1        0.0510
     42 C           2.5535    0.2265    6.3541 C.3     1  LIG1       -0.0107
     43 H           2.5977    1.0028    6.9159 H       1  LIG1        0.0345
     44 H           3.2695   -0.3720    6.5785 H       1  LIG1        0.0345
     45 H           1.7135   -0.2210    6.4844 H       1  LIG1        0.0345
     46 C          -0.3528   -2.7866    0.6481 C.3     1  LIG1       -0.0107
     47 H           0.0547   -2.8040   -0.2213 H       1  LIG1        0.0345
     48 H          -1.2168   -3.2009    0.6042 H       1  LIG1        0.0345
     49 H           0.2016   -3.2654    1.2696 H       1  LIG1        0.0345
@<TRIPOS>BOND
     1    47    46    1
     2     7    21    2
     3    48    46    1
     4    46     2    1
     5    46    49    1
     6    17    16    1
     7     2    20    1
     8    24    23    1
     9    21    11   ar
    10    21     3   ar
    11    18    16    1
    12    16    19    1
    13    16     3    1
    14    38    35    1
    15    23    11   ar
    16    23    15   ar
    17    11    10   ar
    18     3    13   ar
    19    36    35    1
    20    35    37    1
    21    35     9    1
    22    20     4   ar
    23    20     9   ar
    24    15    12   ar
    25     4    25   ar
    26     9    14   ar
    27    10    12   ar
    28    10     6   ar
    29    13     6   ar
    30    13     1    1
    31    40    39    1
    32    12    32    1
    33     1    42    1
    34    25     5   ar
    35    25    22   ar
    36    14     8    2
    37    14    22   ar
    38    39    41    1
    39    39     5    1
    40    39    26    1
    41    27    26    1
    42     5    29   ar
    43    22    30   ar
    44    32    26    1
    45    32    34    1
    46    32    33    1
    47    26    28    1
    48    42    45    1
    49    42    44    1
    50    42    43    1
    51    30    29   ar
    52    30    31    1
