@<TRIPOS>MOLECULE
?
 52 56 0 0 0
SMALL
GASTEIGER

@<TRIPOS>ATOM
      1 O          -1.3181    3.3131    5.7222 O.3     1  LIG1       -0.3605
      2 O          -1.0853    0.1581    8.5005 O.3     1  LIG1       -0.3462
      3 O           0.8533    1.3019    8.6616 O.3     1  LIG1       -0.3462
      4 O           3.4163    4.6884    2.7744 O.3     1  LIG1       -0.4802
      5 H           4.2306    4.5663    2.6728 H       1  LIG1        0.2951
      6 O           3.2908    2.8772    1.5033 O.2     1  LIG1       -0.2504
      7 C          -0.0698    1.4584    3.5412 C.3     1  LIG1       -0.0446
      8 H          -0.0305    0.5663    3.9451 H       1  LIG1        0.0272
      9 H          -1.0123    1.7199    3.4778 H       1  LIG1        0.0272
     10 C           0.5345    1.4030    2.1358 C.3     1  LIG1       -0.0515
     11 H           1.4583    1.0794    2.1888 H       1  LIG1        0.0266
     12 H           0.0235    0.7753    1.5837 H       1  LIG1        0.0266
     13 C           0.5149    2.7790    1.4905 C.3     1  LIG1       -0.0372
     14 H          -0.4170    3.0472    1.3522 H       1  LIG1        0.0276
     15 H           0.9398    2.7184    0.6093 H       1  LIG1        0.0276
     16 C           1.2254    3.8712    2.3056 C.3     1  LIG1        0.0682
     17 C           0.6663    3.8615    3.7682 C.3     1  LIG1       -0.0173
     18 H          -0.2897    4.1049    3.6841 H       1  LIG1        0.0317
     19 C           1.2691    4.9087    4.7161 C.3     1  LIG1       -0.0459
     20 H           2.1604    4.6165    4.9984 H       1  LIG1        0.0269
     21 H           1.3653    5.7603    4.2408 H       1  LIG1        0.0269
     22 C           0.3873    5.1124    5.9495 C.3     1  LIG1       -0.0207
     23 H           0.9219    5.5394    6.6516 H       1  LIG1        0.0294
     24 H          -0.3419    5.7236    5.7182 H       1  LIG1        0.0294
     25 C          -0.2048    3.8322    6.4994 C.3     1  LIG1        0.1000
     26 C          -0.0903    2.5453    5.7834 C.3     1  LIG1        0.1096
     27 C           0.6762    2.4607    4.4486 C.3     1  LIG1        0.0037
     28 C          -0.2836    1.2300    6.5249 C.3     1  LIG1        0.0338
     29 H           0.4857    0.6539    6.3359 H       1  LIG1        0.0346
     30 H          -1.0784    0.7865    6.1623 H       1  LIG1        0.0346
     31 C          -0.4426    1.3386    8.0360 C.3     1  LIG1        0.1730
     32 C          -1.1854    2.5925    8.4666 C.3     1  LIG1        0.0042
     33 H          -2.0923    2.5775    8.0953 H       1  LIG1        0.0318
     34 H          -1.2574    2.6090    9.4433 H       1  LIG1        0.0318
     35 C          -0.4654    3.8382    7.9920 C.3     1  LIG1       -0.0161
     36 H           0.3887    3.9131    8.4657 H       1  LIG1        0.0296
     37 H          -1.0046    4.6248    8.2195 H       1  LIG1        0.0296
     38 C          -0.6582   -0.0427    9.8411 C.3     1  LIG1        0.0744
     39 H          -0.5362   -0.9970   10.0263 H       1  LIG1        0.0584
     40 H          -1.3156    0.3199   10.4714 H       1  LIG1        0.0584
     41 C           0.6646    0.7011    9.9576 C.3     1  LIG1        0.0744
     42 H           0.6187    1.3865   10.6566 H       1  LIG1        0.0584
     43 H           1.3950    0.0831   10.1663 H       1  LIG1        0.0584
     44 C           2.1046    1.9581    4.7465 C.3     1  LIG1       -0.0566
     45 H           2.0712    1.0255    5.0121 H       1  LIG1        0.0236
     46 H           2.4902    2.4847    5.4646 H       1  LIG1        0.0236
     47 H           2.6521    2.0472    3.9503 H       1  LIG1        0.0236
     48 C           0.9058    5.2218    1.6395 C.3     1  LIG1       -0.0491
     49 H           1.2006    5.2038    0.7145 H       1  LIG1        0.0240
     50 H           1.3687    5.9326    2.1109 H       1  LIG1        0.0240
     51 H          -0.0496    5.3806    1.6710 H       1  LIG1        0.0240
     52 C           2.7432    3.7184    2.1642 C.2     1  LIG1        0.3110
@<TRIPOS>BOND
     1    15    13    1
     2    49    48    1
     3    14    13    1
     4    13    10    1
     5    13    16    1
     6     6    52    2
     7    12    10    1
     8    48    51    1
     9    48    50    1
    10    48    16    1
    11    10    11    1
    12    10     7    1
    13    52    16    1
    14    52     4    1
    15    16    17    1
    16     5     4    1
    17     9     7    1
    18     7     8    1
    19     7    27    1
    20    18    17    1
    21    17    27    1
    22    17    19    1
    23    47    44    1
    24    21    19    1
    25    27    44    1
    26    27    26    1
    27    19    20    1
    28    19    22    1
    29    44    45    1
    30    44    46    1
    31    24    22    1
    32     1    26    1
    33     1    25    1
    34    26    25    1
    35    26    28    1
    36    22    25    1
    37    22    23    1
    38    30    28    1
    39    29    28    1
    40    25    35    1
    41    28    31    1
    42    35    37    1
    43    35    36    1
    44    35    32    1
    45    31    32    1
    46    31     2    1
    47    31     3    1
    48    33    32    1
    49    32    34    1
    50     2    38    1
    51     3    41    1
    52    38    41    1
    53    38    39    1
    54    38    40    1
    55    41    43    1
    56    41    42    1
