@<TRIPOS>MOLECULE
tert-butyl N-(1-aminocarbonyl-1-isopropylbut-3-enyl)carbamate
 42 41 0 0 0
SMALL
GASTEIGER

@<TRIPOS>ATOM
      1 O           9.9348    1.4594    0.6349 O.2     1  LIG1       -0.2737
      2 O          10.1740    5.2140    3.6378 O.2     1  LIG1       -0.2264
      3 O           8.1717    4.7810    2.6521 O.3     1  LIG1       -0.4447
      4 N          11.9279    0.6780    1.2749 N.am    1  LIG1       -0.3275
      5 H          11.8183   -0.0543    0.6934 H       1  LIG1        0.1450
      6 H          12.6181    0.7450    1.7692 H       1  LIG1        0.1450
      7 N           9.8532    3.4747    2.1967 N.am    1  LIG1       -0.2666
      8 H           9.3213    3.0105    1.7054 H       1  LIG1        0.1531
      9 C          10.9681    1.6030    1.2906 C.2     1  LIG1        0.2346
     10 C          11.1963    2.8896    2.1127 C.3     1  LIG1        0.1189
     11 C           9.4803    4.5514    2.9074 C.2     1  LIG1        0.4016
     12 C           7.3362    5.5688    3.5596 C.3     1  LIG1        0.1068
     13 C           5.9809    5.4648    2.9211 C.3     1  LIG1       -0.0253
     14 H           5.9956    5.9012    2.0665 H       1  LIG1        0.0268
     15 H           5.3291    5.8876    3.4846 H       1  LIG1        0.0268
     16 H           5.7528    4.5401    2.8049 H       1  LIG1        0.0268
     17 C           7.7943    6.9842    3.6583 C.3     1  LIG1       -0.0253
     18 H           7.7897    7.3844    2.7862 H       1  LIG1        0.0268
     19 H           8.6848    7.0080    4.0168 H       1  LIG1        0.0268
     20 H           7.2033    7.4726    4.2367 H       1  LIG1        0.0268
     21 C           7.3244    4.8939    4.8864 C.3     1  LIG1       -0.0253
     22 H           7.0269    3.9873    4.7815 H       1  LIG1        0.0268
     23 H           6.7278    5.3597    5.4774 H       1  LIG1        0.0268
     24 H           8.2098    4.8996    5.2563 H       1  LIG1        0.0268
     25 C          11.7358    2.5741    3.5233 C.3     1  LIG1       -0.0047
     26 H          12.6461    2.2203    3.4908 H       1  LIG1        0.0333
     27 H          11.9823    3.4525    3.9144 H       1  LIG1        0.0333
     28 C          10.8136    1.7715    4.3617 C.2     1  LIG1       -0.0886
     29 H          10.6529    1.1463    4.0606 H       1  LIG1        0.0567
     30 C          10.3622    2.1208    5.5099 C.2     1  LIG1       -0.1026
     31 H          10.5923    3.0252    6.0221 H       1  LIG1        0.0532
     32 H           9.6400    1.6777    5.9909 H       1  LIG1        0.0532
     33 C          12.1267    3.8697    1.3194 C.3     1  LIG1       -0.0164
     34 H          11.9951    4.6837    1.9228 H       1  LIG1        0.0321
     35 C          13.6175    3.5113    1.3756 C.3     1  LIG1       -0.0602
     36 H          14.0146    4.3083    0.8446 H       1  LIG1        0.0233
     37 H          13.7700    2.5346    0.9783 H       1  LIG1        0.0233
     38 H          13.8897    3.6097    2.3789 H       1  LIG1        0.0233
     39 C          11.6685    4.0461   -0.1324 C.3     1  LIG1       -0.0602
     40 H          12.1210    4.7673   -0.5485 H       1  LIG1        0.0233
     41 H          11.9594    3.1326   -0.6097 H       1  LIG1        0.0233
     42 H          10.6163    4.2202   -0.1449 H       1  LIG1        0.0233
@<TRIPOS>BOND
     1    41    39    1
     2    40    39    1
     3    42    39    1
     4    39    33    1
     5     1     9    2
     6     5     4    1
     7    36    35    1
     8    37    35    1
     9     4     9   am
    10     4     6    1
    11     9    10    1
    12    33    35    1
    13    33    34    1
    14    33    10    1
    15    35    38    1
    16     8     7    1
    17    14    13    1
    18    10     7    1
    19    10    25    1
    20     7    11   am
    21     3    11    1
    22     3    12    1
    23    18    17    1
    24    16    13    1
    25    11     2    2
    26    13    15    1
    27    13    12    1
    28    26    25    1
    29    25    27    1
    30    25    28    1
    31    12    17    1
    32    12    21    1
    33    17    19    1
    34    17    20    1
    35    29    28    1
    36    28    30    2
    37    22    21    1
    38    21    24    1
    39    21    23    1
    40    30    32    1
    41    30    31    1
