@<TRIPOS>MOLECULE
4-nitramino-1,2,4-triazole
 12 12 0 0 0
SMALL
GASTEIGER

@<TRIPOS>ATOM
      1 N           3.6219    6.5490    1.6392 N.2     1  LIG1       -0.1763
      2 N           4.7897    6.0996    1.1000 N.pl3   1  LIG1       -0.2422
      3 H           5.5514    6.6982    0.9738 H       1  LIG1        0.1703
      4 C           4.6907    4.8663    0.6755 C.3     1  LIG1        0.1617
      5 H           5.3190    4.4027    0.2236 H       1  LIG1        0.0775
      6 N           3.4330    4.4835    0.9388 N.pl3   1  LIG1       -0.1743
      7 C           2.8112    5.5390    1.5241 C.2     1  LIG1        0.1233
      8 H           1.9063    5.5103    1.8466 H       1  LIG1        0.1032
      9 N           2.7285    3.3312    0.5453 N.pl3   1  LIG1        0.0113
     10 N           3.3523    2.2431    0.9521 N.pl3   1  LIG1        0.1588
     11 O           2.7422    1.1774    0.6744 O.2     1  LIG1       -0.1066
     12 O           4.4331    2.2481    1.5494 O.2     1  LIG1       -0.1066
@<TRIPOS>BOND
     1     5     4    1
     2     9     6    1
     3     9    10    1
     4    11    10    2
     5     4     6    1
     6     4     2    1
     7     6     7    1
     8    10    12    2
     9     3     2    1
    10     2     1    1
    11     7     1    2
    12     7     8    1
