@<TRIPOS>MOLECULE
(1S,5S,4aR,10bS)-8,9-diethoxy-N-methyl-(2)benzopyran(3,4-g)indolin-6-one
 50 50 0 0 0
SMALL
GASTEIGER

@<TRIPOS>ATOM
      1 CL          5.7099    1.2099   10.8471 Cl      1  LIG1        0.0000
      2 O           9.9123    3.2599    4.6914 O.3     2  LIG2       -0.4567
      3 O          10.0256    2.9955    6.8618 O.2     2  LIG2       -0.2449
      4 O          14.9115    4.1886    7.9987 O.3     2  LIG2       -0.4914
      5 O          16.1250    4.2223    5.7445 O.3     2  LIG2       -0.4914
      6 N          12.7942    0.8174    2.6147 N.4     2  LIG2        0.2390
      7 C          10.5713    3.8231    3.5108 C.3     2  LIG2        0.1191
      8 C           9.5806    3.6569    2.3777 C.3     2  LIG2        0.0038
      9 C           9.6963    2.3400    1.6975 C.2     2  LIG2       -0.0758
     10 C          10.6257    1.4567    1.9891 C.2     2  LIG2       -0.0202
     11 C          11.6394    1.6604    3.0625 C.3     2  LIG2        0.0113
     12 C          10.6304    3.2387    5.8326 C.2     2  LIG2        0.3399
     13 C          12.0659    3.4796    5.7663 C.ar    2  LIG2        0.0664
     14 C          12.7855    3.7323    6.9460 C.ar    2  LIG2       -0.0021
     15 C          14.1129    3.9564    6.9209 C.ar    2  LIG2        0.1623
     16 C          14.8046    3.9659    5.6759 C.ar    2  LIG2        0.1618
     17 C          14.0940    3.7286    4.5121 C.ar    2  LIG2       -0.0118
     18 C          12.7512    3.4547    4.5515 C.ar    2  LIG2       -0.0174
     19 C          11.9194    3.1581    3.3084 C.3     2  LIG2        0.0692
     20 C          10.8984    0.1333    1.3080 C.3     2  LIG2        0.0139
     21 H          10.1588   -0.4805    1.4378 H       2  LIG2        0.0364
     22 H          11.0392    0.2585    0.3562 H       2  LIG2        0.0364
     23 C          12.1472   -0.3845    1.9691 C.3     2  LIG2       -0.0276
     24 H          12.7411   -0.7815    1.3139 H       2  LIG2        0.0818
     25 H          11.9271   -1.0532    2.6362 H       2  LIG2        0.0818
     26 C          13.7721    0.4072    3.6427 C.3     2  LIG2       -0.0425
     27 H          13.3065    0.0542    4.4051 H       2  LIG2        0.0778
     28 H          14.2928    1.1682    3.9108 H       2  LIG2        0.0778
     29 H          14.3522   -0.2666    3.2830 H       2  LIG2        0.0778
     30 C          14.2937    4.1688    9.2820 C.3     2  LIG2        0.0790
     31 H          14.9517    4.3483    9.9574 H       2  LIG2        0.0660
     32 H          13.9037    3.3046    9.4368 H       2  LIG2        0.0660
     33 H          13.6072    4.8397    9.3177 H       2  LIG2        0.0660
     34 C          16.8856    4.1666    4.5326 C.3     2  LIG2        0.0790
     35 H          17.8048    4.3680    4.7220 H       2  LIG2        0.0660
     36 H          16.5391    4.8075    3.9072 H       2  LIG2        0.0660
     37 H          16.8224    3.2855    4.1550 H       2  LIG2        0.0660
     38 O          13.9698    1.9973    0.4880 O.3     3  HOH3       -0.2528
     39 O           2.7771    0.1560   11.2257 O.3     4  HOH4       -0.2528
     40 H          13.2138    1.0913    2.0048 H       2  LIG2        0.2037
     41 H          10.6435    4.7899    3.6844 H       2  LIG2        0.0745
     42 H           8.5665    3.7279    2.7327 H       2  LIG2        0.0343
     43 H           9.7160    4.5043    1.8226 H       2  LIG2        0.0343
     44 H           9.1533    2.2558    1.1197 H       2  LIG2        0.0575
     45 H          11.3008    1.2231    3.8453 H       2  LIG2        0.0908
     46 H          12.3494    3.7938    7.6238 H       2  LIG2        0.0663
     47 H          14.5030    3.6693    3.7881 H       2  LIG2        0.0658
     48 H          12.3941    3.7059    2.5468 H       2  LIG2        0.0444
     49 H          14.5907    1.4721    0.0905 H       0  HOH0        0.2528
     50 H           3.6639    0.3516   11.2332 H       0  HOH0        0.2528
@<TRIPOS>BOND
     1    49    38    1
     2    22    20    1
     3    44     9    1
     4    20    21    1
     5    20    23    1
     6    20    10    1
     7    24    23    1
     8     9    10    2
     9     9     8    1
    10    43     8    1
    11    23     6    1
    12    23    25    1
    13    10    11    1
    14    40     6    1
    15     8    42    1
    16     8     7    1
    17    48    19    1
    18     6    11    1
    19     6    26    1
    20    11    19    1
    21    11    45    1
    22    29    26    1
    23    19     7    1
    24    19    18    1
    25     7    41    1
    26     7     2    1
    27    26    28    1
    28    26    27    1
    29    47    17    1
    30    36    34    1
    31    37    34    1
    32    17    18   ar
    33    17    16   ar
    34    34    35    1
    35    34     5    1
    36    18    13   ar
    37     2    12    1
    38    16     5    1
    39    16    15   ar
    40    13    12    1
    41    13    14   ar
    42    12     3    2
    43    15    14   ar
    44    15     4    1
    45    14    46    1
    46     4    30    1
    47    30    33    1
    48    30    32    1
    49    30    31    1
    50    39    50    1
