@<TRIPOS>MOLECULE
bis(N,N'-diphenylguanidinium) oxalate
 33 33 0 0 0
SMALL
GASTEIGER

@<TRIPOS>ATOM
      1 C           6.9198    9.9634   -1.8982 C.cat   1  LIG1        0.3529
      2 N           6.7999   10.2123   -0.5943 N.pl3   1  LIG1       -0.2460
      3 H           6.3753   10.9400   -0.3549 H       1  LIG1        0.2647
      4 N           6.2661   10.7099   -2.7597 N.pl3   1  LIG1       -0.2911
      5 H           5.7402   11.3719   -2.4532 H       1  LIG1        0.2546
      6 H           6.4512   10.6192   -3.6246 H       1  LIG1        0.2546
      7 N           7.6907    8.9685   -2.3623 N.pl3   1  LIG1       -0.2460
      8 H           7.4626    8.6499   -3.1546 H       1  LIG1        0.2647
      9 C           6.9160    9.2720    0.4699 C.ar    1  LIG1        0.0999
     10 C           6.5998    7.9361    0.3259 C.ar    1  LIG1       -0.0232
     11 H           6.3558    7.6297   -0.5685 H       1  LIG1        0.0652
     12 C           6.6592    7.0993    1.4302 C.ar    1  LIG1       -0.0585
     13 H           6.4107    6.2055    1.2925 H       1  LIG1        0.0619
     14 C           7.0054    7.5909    2.6526 C.ar    1  LIG1       -0.0615
     15 H           7.0559    7.0158    3.4300 H       1  LIG1        0.0618
     16 C           7.3061    8.9185    2.7942 C.ar    1  LIG1       -0.0585
     17 H           7.6088    9.2693    3.6792 H       1  LIG1        0.0619
     18 C           7.2694    9.7598    1.7068 C.ar    1  LIG1       -0.0232
     19 H           7.4723   10.6769    1.7933 H       1  LIG1        0.0652
     20 C           8.8664    8.4771   -1.7438 C.ar    1  LIG1        0.0999
     21 C           9.7535    9.3233   -1.1190 C.ar    1  LIG1       -0.0232
     22 H           9.5528   10.2462   -1.0860 H       1  LIG1        0.0652
     23 C          10.9088    8.8120   -0.5686 C.ar    1  LIG1       -0.0585
     24 H          11.4988    9.3692   -0.1341 H       1  LIG1        0.0619
     25 C          11.1839    7.4743   -0.6415 C.ar    1  LIG1       -0.0615
     26 H          11.9846    7.1157   -0.2504 H       1  LIG1        0.0618
     27 C          10.3121    6.6428   -1.2794 C.ar    1  LIG1       -0.0585
     28 H          10.5071    5.7170   -1.3672 H       1  LIG1        0.0619
     29 C           9.1528    7.1399   -1.8338 C.ar    1  LIG1       -0.0232
     30 H           8.5119    6.5574   -2.2740 H       1  LIG1        0.0652
     31 O           5.4135   12.2924    0.5584 O.co2   1  LIG1       -0.2331
     32 O           4.9428   12.9639   -1.4887 O.co2   1  LIG1       -0.2331
     33 C           5.0766   13.1597   -0.2711 C.2     1  LIG1        0.4661
@<TRIPOS>BOND
     1     6     4    1
     2     8     7    1
     3     4     5    1
     4     4     1    2
     5     7     1    1
     6     7    20    1
     7    30    29    1
     8     1     2    1
     9    29    20   ar
    10    29    27   ar
    11    20    21   ar
    12    32    33   ar
    13    28    27    1
    14    27    25   ar
    15    21    22    1
    16    21    23   ar
    17    25    23   ar
    18    25    26    1
    19     2     3    1
    20     2     9    1
    21    23    24    1
    22    11    10    1
    23    33    31   ar
    24    10     9   ar
    25    10    12   ar
    26     9    18   ar
    27    13    12    1
    28    12    14   ar
    29    18    19    1
    30    18    16   ar
    31    14    16   ar
    32    14    15    1
    33    16    17    1
