@<TRIPOS>MOLECULE
2008441.cif
 56 58 0 0 0
SMALL
GASTEIGER

@<TRIPOS>ATOM
      1 N           9.8616    2.2011    0.3234 N.am    1  LIG1       -0.2095
      2 O          10.4267    3.5627   -1.4018 O.2     1  LIG1       -0.2742
      3 O           9.1627    0.8839    2.0383 O.2     1  LIG1       -0.2742
      4 O          12.4768    0.4212    1.5338 O.3     1  LIG1       -0.4802
      5 O          13.2812    1.6679   -0.1349 O.2     1  LIG1       -0.2504
      6 C          10.2016    2.9558    2.6920 C.3     1  LIG1        0.0470
      7 C          10.1340    4.3441    2.0702 C.3     1  LIG1       -0.0255
      8 H          10.4686    4.9992    2.7025 H       1  LIG1        0.0285
      9 H           9.2111    4.5644    1.8687 H       1  LIG1        0.0285
     10 C          10.9620    4.4016    0.7915 C.3     1  LIG1        0.0470
     11 C          12.4407    4.0765    1.1166 C.3     1  LIG1       -0.0237
     12 H          12.9289    4.0164    0.2805 H       1  LIG1        0.0286
     13 H          12.8121    4.8207    1.6158 H       1  LIG1        0.0286
     14 C          12.6955    2.7845    1.9172 C.3     1  LIG1        0.0667
     15 C          11.6730    2.6319    3.0486 C.3     1  LIG1       -0.0237
     16 H          11.9418    3.2093    3.7800 H       1  LIG1        0.0286
     17 H          11.7125    1.7181    3.3717 H       1  LIG1        0.0286
     18 C           9.3620    2.8982    3.9712 C.3     1  LIG1       -0.0511
     19 H           9.6835    3.5527    4.5951 H       1  LIG1        0.0240
     20 H           9.4326    2.0229    4.3607 H       1  LIG1        0.0240
     21 H           8.4442    3.0813    3.7605 H       1  LIG1        0.0240
     22 C          10.8956    5.7965    0.1593 C.3     1  LIG1       -0.0511
     23 H          11.2978    6.4361    0.7516 H       1  LIG1        0.0240
     24 H           9.9790    6.0345    0.0054 H       1  LIG1        0.0240
     25 H          11.3700    5.7919   -0.6752 H       1  LIG1        0.0240
     26 C          12.8004    1.5656    1.0103 C.2     1  LIG1        0.3107
     27 C          14.1139    2.8559    2.5410 C.3     1  LIG1       -0.0494
     28 H          14.1733    3.6259    3.1121 H       1  LIG1        0.0240
     29 H          14.7681    2.9245    1.8415 H       1  LIG1        0.0240
     30 H          14.2773    2.0630    3.0558 H       1  LIG1        0.0240
     31 C          10.4114    3.3912   -0.2019 C.2     1  LIG1        0.2322
     32 C           9.6919    1.9245    1.6975 C.2     1  LIG1        0.2322
     33 C           9.3233    1.2463   -0.6331 C.ar    1  LIG1        0.0439
     34 C           7.9530    1.1003   -0.7348 C.ar    1  LIG1       -0.0396
     35 H           7.3874    1.6087   -0.1997 H       1  LIG1        0.0636
     36 C           7.4238    0.1867   -1.6438 C.ar    1  LIG1       -0.0568
     37 H           6.5021    0.0737   -1.6951 H       1  LIG1        0.0621
     38 C           8.2518   -0.5584   -2.4752 C.ar    1  LIG1       -0.0472
     39 C           9.6324   -0.3707   -2.3731 C.ar    1  LIG1       -0.0568
     40 H          10.2011   -0.8490   -2.9326 H       1  LIG1        0.0621
     41 C          10.1694    0.5149   -1.4525 C.ar    1  LIG1       -0.0396
     42 H          11.0912    0.6190   -1.3848 H       1  LIG1        0.0636
     43 C           7.6793   -1.5362   -3.4754 C.3     1  LIG1       -0.0277
     44 H           8.0226   -1.3163   -4.3556 H       1  LIG1        0.0313
     45 H           6.7160   -1.4259   -3.5004 H       1  LIG1        0.0313
     46 C           7.9954   -2.9989   -3.1801 C.3     1  LIG1       -0.0493
     47 H           7.6079   -3.5470   -3.8804 H       1  LIG1        0.0268
     48 H           8.9573   -3.1202   -3.2117 H       1  LIG1        0.0268
     49 C           7.4882   -3.4966   -1.8400 C.3     1  LIG1       -0.0556
     50 H           6.5639   -3.2278   -1.7260 H       1  LIG1        0.0263
     51 H           8.0084   -3.0905   -1.1287 H       1  LIG1        0.0263
     52 C           7.5914   -5.0150   -1.7389 C.3     1  LIG1       -0.0653
     53 H           6.9745   -5.4189   -2.3538 H       1  LIG1        0.0230
     54 H           7.3789   -5.2919   -0.8440 H       1  LIG1        0.0230
     55 H           8.4843   -5.2907   -1.9546 H       1  LIG1        0.0230
     56 H          12.6077   -0.3009    0.9311 H       1  LIG1        0.2951
@<TRIPOS>BOND
     1    44    43    1
     2    47    46    1
     3    45    43    1
     4    43    46    1
     5    43    38    1
     6    48    46    1
     7    46    49    1
     8    40    39    1
     9    38    39   ar
    10    38    36   ar
    11    39    41   ar
    12    53    52    1
    13    55    52    1
    14    49    52    1
    15    49    50    1
    16    49    51    1
    17    52    54    1
    18    37    36    1
    19    36    34   ar
    20    41    42    1
    21    41    33   ar
    22     2    31    2
    23    34    33   ar
    24    34    35    1
    25    25    22    1
    26    33     1    1
    27    31     1   am
    28    31    10    1
    29     5    26    2
    30    24    22    1
    31    22    23    1
    32    22    10    1
    33    12    11    1
    34     1    32   am
    35    10    11    1
    36    10     7    1
    37    56     4    1
    38    26     4    1
    39    26    14    1
    40    11    13    1
    41    11    14    1
    42    32     3    2
    43    32     6    1
    44    29    27    1
    45     9     7    1
    46    14    27    1
    47    14    15    1
    48     7     6    1
    49     7     8    1
    50    27    30    1
    51    27    28    1
    52     6    15    1
    53     6    18    1
    54    15    17    1
    55    15    16    1
    56    21    18    1
    57    18    20    1
    58    18    19    1
