@<TRIPOS>MOLECULE
?
 65 69 0 0 0
SMALL
GASTEIGER

@<TRIPOS>ATOM
      1 S           0.6303    8.3418    4.4804 S.O2    1  LIG1        0.0848
      2 N           1.8804    9.1044    5.2993 N.ar    1  LIG1       -0.2084
      3 N           5.3537    8.3379    4.4576 N.ar    1  LIG1       -0.3373
      4 O           0.9006    8.4716    3.0891 O.2     1  LIG1       -0.1476
      5 O          -0.5761    8.8832    5.0095 O.2     1  LIG1       -0.1476
      6 O           2.0209   11.3679    0.7275 O.3     1  LIG1       -0.4648
      7 O           2.6459    9.4544   -0.2260 O.2     1  LIG1       -0.2456
      8 O           5.1834    8.1096    0.5647 O.2     1  LIG1       -0.2449
      9 O           4.0680    6.6080    1.7969 O.3     1  LIG1       -0.4644
     10 C           1.8342    9.1107    6.7641 C.ar    1  LIG1        0.0736
     11 C           0.7528    9.4162    7.5881 C.ar    1  LIG1       -0.0358
     12 H          -0.0810    9.6290    7.2354 H       1  LIG1        0.0639
     13 C           0.9768    9.3872    8.9683 C.ar    1  LIG1       -0.0597
     14 H           0.2712    9.5810    9.5428 H       1  LIG1        0.0618
     15 C           2.2036    9.0819    9.5033 C.ar    1  LIG1       -0.0611
     16 H           2.3159    9.0718   10.4270 H       1  LIG1        0.0618
     17 C           3.2762    8.7882    8.6780 C.ar    1  LIG1       -0.0519
     18 H           4.1063    8.5814    9.0420 H       1  LIG1        0.0624
     19 C           3.0979    8.8062    7.3014 C.ar    1  LIG1        0.0111
     20 C           3.9883    8.5971    6.1703 C.ar    1  LIG1        0.0305
     21 C           5.2993    8.3481    5.8325 C.ar    1  LIG1        0.0264
     22 C           4.0916    8.6184    3.8927 C.ar    1  LIG1        0.0829
     23 C           3.2557    8.7636    4.9866 C.ar    1  LIG1        0.0993
     24 C           0.7259    6.6441    4.9147 C.ar    1  LIG1        0.1110
     25 C           0.0182    6.1792    6.0047 C.ar    1  LIG1       -0.0349
     26 H          -0.4915    6.7595    6.5245 H       1  LIG1        0.0637
     27 C           0.0834    4.8360    6.3066 C.ar    1  LIG1       -0.0599
     28 H          -0.3891    4.5077    7.0379 H       1  LIG1        0.0618
     29 C           0.8221    3.9921    5.5575 C.ar    1  LIG1       -0.0616
     30 H           0.8438    3.0866    5.7702 H       1  LIG1        0.0618
     31 C           1.5468    4.4572    4.4771 C.ar    1  LIG1       -0.0599
     32 H           2.0645    3.8671    3.9802 H       1  LIG1        0.0618
     33 C           1.5077    5.8035    4.1280 C.ar    1  LIG1       -0.0349
     34 H           1.9839    6.1272    3.3992 H       1  LIG1        0.0637
     35 C           6.5002    8.1373    6.7021 C.3     1  LIG1       -0.0236
     36 H           6.7843    7.2228    6.6379 H       1  LIG1        0.0292
     37 H           6.2751    8.3393    7.6125 H       1  LIG1        0.0292
     38 H           7.2101    8.7150    6.4124 H       1  LIG1        0.0292
     39 C           3.8806    8.8379    2.4581 C.2     1  LIG1        0.0912
     40 C           3.1385    9.8851    2.0786 C.2     1  LIG1        0.0385
     41 H           2.9334   10.5035    2.7418 H       1  LIG1        0.0698
     42 C           2.6077   10.1742    0.7356 C.2     1  LIG1        0.3325
     43 C           1.4349   11.7999   -0.5134 C.3     1  LIG1        0.0820
     44 H           2.0989   11.7786   -1.2053 H       1  LIG1        0.0661
     45 H           1.1019   12.6947   -0.4153 H       1  LIG1        0.0661
     46 H           0.7118   11.2130   -0.7466 H       1  LIG1        0.0661
     47 C           4.4543    7.8433    1.4684 C.2     1  LIG1        0.3412
     48 C           4.6508    5.5172    1.0231 C.3     1  LIG1        0.0820
     49 H           4.4660    5.6514    0.0917 H       1  LIG1        0.0661
     50 H           4.2678    4.6830    1.3072 H       1  LIG1        0.0661
     51 H           5.5998    5.4969    1.1632 H       1  LIG1        0.0661
     52 C           6.5570    7.9883    3.7184 C.3     1  LIG1        0.0486
     53 H           7.3120    8.4541    4.1101 H       1  LIG1        0.0541
     54 H           6.4633    8.2955    2.8029 H       1  LIG1        0.0541
     55 C           6.8512    6.4930    3.7074 C.ar    1  LIG1       -0.0278
     56 C           8.0059    6.0402    3.0738 C.ar    1  LIG1       -0.0569
     57 H           8.5599    6.6448    2.6373 H       1  LIG1        0.0621
     58 C           8.3358    4.6904    3.0896 C.ar    1  LIG1       -0.0614
     59 H           9.1025    4.3971    2.6526 H       1  LIG1        0.0618
     60 C           7.5388    3.7901    3.7459 C.ar    1  LIG1       -0.0617
     61 H           7.7752    2.8904    3.7725 H       1  LIG1        0.0618
     62 C           6.3884    4.2183    4.3649 C.ar    1  LIG1       -0.0614
     63 H           5.8413    3.6083    4.8032 H       1  LIG1        0.0618
     64 C           6.0454    5.5558    4.3332 C.ar    1  LIG1       -0.0569
     65 H           5.2574    5.8329    4.7408 H       1  LIG1        0.0621
@<TRIPOS>BOND
     1    44    43    1
     2    46    43    1
     3    43    45    1
     4    43     6    1
     5     7    42    2
     6    49    48    1
     7     8    47    2
     8     6    42    1
     9    42    40    1
    10    48    51    1
    11    48    50    1
    12    48     9    1
    13    47     9    1
    14    47    39    1
    15    40    39    2
    16    40    41    1
    17    39    22    1
    18    57    56    1
    19    59    58    1
    20    54    52    1
    21    56    58   ar
    22    56    55   ar
    23     4     1    2
    24    58    60   ar
    25    34    33    1
    26    55    52    1
    27    55    64   ar
    28    52    53    1
    29    52     3    1
    30    60    61    1
    31    60    62   ar
    32    22     3   ar
    33    22    23   ar
    34    32    31    1
    35    33    31   ar
    36    33    24   ar
    37    64    62   ar
    38    64    65    1
    39    62    63    1
    40     3    21   ar
    41    31    29   ar
    42     1    24    1
    43     1     5    2
    44     1     2    1
    45    24    25   ar
    46    23     2   ar
    47    23    20   ar
    48     2    10   ar
    49    29    30    1
    50    29    27   ar
    51    21    20   ar
    52    21    35    1
    53    25    27   ar
    54    25    26    1
    55    20    19   ar
    56    27    28    1
    57    38    35    1
    58    36    35    1
    59    35    37    1
    60    10    19   ar
    61    10    11   ar
    62    12    11    1
    63    19    17   ar
    64    11    13   ar
    65    17    18    1
    66    17    15   ar
    67    13    15   ar
    68    13    14    1
    69    15    16    1
