@<TRIPOS>MOLECULE
L-Methionine:D-Norleucine
 42 40 0 0 0
SMALL
GASTEIGER

@<TRIPOS>ATOM
      1 SD          4.4669    0.0702    1.7754 S.3     1  MET1       -0.1639
      2 OXT         1.9798   -1.0466    6.7832 O.co2   1  MET1       -0.2400
      3 O           0.4342    0.2843    5.8439 O.co2   1  MET1       -0.2400
      4 N           3.9460    0.7313    6.3505 N.4     1  MET1        0.2289
      5 H1          4.3717   -0.0847    6.3056 H       1  MET1        0.2002
      6 H2          4.4940    1.3685    6.0878 H       1  MET1        0.2002
      7 H3          3.6787    0.8888    7.1850 H       1  MET1        0.2002
      8 C           1.6248   -0.0504    6.1099 C.2     1  MET1        0.4026
      9 CA          2.7406    0.7930    5.4767 C.3     1  MET1        0.0793
     10 HA          2.4536    1.6883    5.3951 H       1  MET1        0.0970
     11 CB          3.0444    0.2198    4.0850 C.3     1  MET1        0.0099
     12 HB1         3.1906   -0.7520    4.1685 H       1  MET1        0.0333
     13 HB2         2.2548    0.3541    3.5094 H       1  MET1        0.0333
     14 CG          4.2623    0.8413    3.4002 C.3     1  MET1       -0.0009
     15 HG1         5.0648    0.6932    3.9451 H       1  MET1        0.0378
     16 HG2         4.1323    1.8083    3.2983 H       1  MET1        0.0378
     17 CE          6.0730    0.7398    1.3130 C.3     1  MET1       -0.0181
     18 HE1         6.0156    1.6968    1.2524 H       1  MET1        0.0340
     19 HE2         6.3371    0.3809    0.4624 H       1  MET1        0.0340
     20 HE3         6.7234    0.4994    1.9781 H       1  MET1        0.0340
     21 OXT        -2.9768    4.3916    6.7636 O.co2   1  LIG1       -0.2400
     22 O          -4.5071    3.0679    5.7926 O.co2   1  LIG1       -0.2400
     23 N          -1.0019    2.6213    6.3461 N.4     1  LIG1        0.2289
     24 H1         -0.5918    3.4425    6.2774 H       1  LIG1        0.2002
     25 H2         -0.3736    1.9799    6.1066 H       1  LIG1        0.2002
     26 H3         -1.2616    2.4784    7.1740 H       1  LIG1        0.2002
     27 C          -3.3197    3.3993    6.0771 C.2     1  LIG1        0.4026
     28 CA         -2.1969    2.5586    5.4563 C.3     1  LIG1        0.0785
     29 HA         -2.4926    1.6305    5.3746 H       1  LIG1        0.0970
     30 C          -1.8694    3.1147    4.0635 C.3     1  LIG1        0.0009
     31 H          -2.6574    2.9751    3.4749 H       1  LIG1        0.0325
     32 H          -1.7235    4.0948    4.1411 H       1  LIG1        0.0325
     33 C          -0.6431    2.4922    3.3908 C.3     1  LIG1       -0.0477
     34 H           0.1744    2.6792    3.9545 H       1  LIG1        0.0267
     35 H          -0.7644    1.4903    3.3439 H       1  LIG1        0.0267
     36 C          -0.4123    3.0340    1.9818 C.3     1  LIG1       -0.0557
     37 H          -0.3861    4.0718    2.0188 H       1  LIG1        0.0263
     38 H          -1.2120    2.7583    1.3777 H       1  LIG1        0.0263
     39 C           0.8844    2.5255    1.3527 C.3     1  LIG1       -0.0653
     40 H           1.6367    2.8025    1.8950 H       1  LIG1        0.0230
     41 H           0.9766    2.8928    0.4624 H       1  LIG1        0.0230
     42 H           0.8616    1.5595    1.3025 H       1  LIG1        0.0230
@<TRIPOS>BOND
     1    41    39    1
     2    19    17    1
     3    18    17    1
     4    42    39    1
     5    17     1    1
     6    17    20    1
     7    39    40    1
     8    39    36    1
     9    38    36    1
    10     1    14    1
    11    36    37    1
    12    36    33    1
    13    16    14    1
    14    35    33    1
    15    33    34    1
    16    33    30    1
    17    14    15    1
    18    14    11    1
    19    31    30    1
    20    13    11    1
    21    30    32    1
    22    30    28    1
    23    11    12    1
    24    11     9    1
    25    29    28    1
    26    10     9    1
    27    28    27    1
    28    28    23    1
    29     9     8    1
    30     9     4    1
    31    22    27   ar
    32     3     8   ar
    33    27    21   ar
    34     6     4    1
    35    25    23    1
    36     8     2   ar
    37    24    23    1
    38     5     4    1
    39    23    26    1
    40     4     7    1
