@<TRIPOS>MOLECULE
N-{4-[(benzenesulfonyl)amino]butyl}benzenesulfonamide
 22 22 0 0 0
SMALL
GASTEIGER

@<TRIPOS>ATOM
      1 S           8.1870   -0.0389    1.8666 S.O2    1  LIG1        0.0584
      2 O           8.5619   -0.5919    0.6011 O.2     1  LIG1       -0.1531
      3 O           7.9573   -0.9193    2.9774 O.2     1  LIG1       -0.1531
      4 N           6.7974    0.7706    1.6598 N.3     1  LIG1       -0.1900
      5 H           6.4388    0.9875    2.4137 H       1  LIG1        0.1480
      6 C           6.7818    1.8903    0.7018 C.3     1  LIG1        0.0175
      7 H           7.2122    1.6111   -0.1455 H       1  LIG1        0.0441
      8 H           7.2931    2.6532    1.0720 H       1  LIG1        0.0441
      9 C           5.3516    2.3152    0.4336 C.3     1  LIG1       -0.0376
     10 H           4.8955    2.4939    1.2937 H       1  LIG1        0.0278
     11 H           4.8697    1.5788   -0.0198 H       1  LIG1        0.0278
     12 C           9.4101    1.1462    2.3325 C.ar    1  LIG1        0.1052
     13 C          10.3886    1.5123    1.4207 C.ar    1  LIG1       -0.0354
     14 H          10.4347    1.0962    0.5678 H       1  LIG1        0.0637
     15 C          11.2996    2.4968    1.7749 C.ar    1  LIG1       -0.0599
     16 H          11.9725    2.7608    1.1581 H       1  LIG1        0.0618
     17 C          11.2342    3.0934    3.0137 C.ar    1  LIG1       -0.0616
     18 H          11.8632    3.7647    3.2484 H       1  LIG1        0.0618
     19 C          10.2563    2.7208    3.9187 C.ar    1  LIG1       -0.0599
     20 H          10.2187    3.1340    4.7737 H       1  LIG1        0.0618
     21 C           9.3359    1.7504    3.5830 C.ar    1  LIG1       -0.0354
     22 H           8.6590    1.4976    4.1989 H       1  LIG1        0.0637
@<TRIPOS>BOND
     1     7     6    1
     2    11     9    1
     3     9     6    1
     4     9    10    1
     5    14    13    1
     6     2     1    2
     7     6     8    1
     8     6     4    1
     9    16    15    1
    10    13    15   ar
    11    13    12   ar
    12     4     1    1
    13     4     5    1
    14    15    17   ar
    15     1    12    1
    16     1     3    2
    17    12    21   ar
    18    17    18    1
    19    17    19   ar
    20    21    19   ar
    21    21    22    1
    22    19    20    1
