@<TRIPOS>MOLECULE
?
 63 61 0 0 0
SMALL
GASTEIGER

@<TRIPOS>ATOM
      1 N           7.7235    1.7985   11.3666 N.3     1  LIG1        0.0601
      2 S           7.0531    2.7297   12.5030 S.O2    1  LIG1        0.0633
      3 S           6.8331    0.7899   10.5015 S.O2    1  LIG1        0.0633
      4 O           8.1425    3.2616   13.2751 O.2     1  LIG1       -0.1556
      5 O           6.0008    2.0491   13.2148 O.2     1  LIG1       -0.1556
      6 O           7.7052    0.3165    9.4576 O.2     1  LIG1       -0.1556
      7 O           5.5696    1.3562   10.0873 O.2     1  LIG1       -0.1556
      8 C           6.3313    4.0770   11.6351 C.3     1  LIG1        0.0738
      9 H           5.8629    4.6597   12.2692 H       1  LIG1        0.0480
     10 H           5.6956    3.7352   10.9716 H       1  LIG1        0.0480
     11 H           7.0340    4.5865   11.1801 H       1  LIG1        0.0480
     12 C           6.4875   -0.5843   11.5448 C.3     1  LIG1        0.0738
     13 H           5.9967   -0.2791   12.3358 H       1  LIG1        0.0480
     14 H           7.3296   -1.0026   11.8231 H       1  LIG1        0.0480
     15 H           5.9447   -1.2378   11.0556 H       1  LIG1        0.0480
     16 C          12.4037    2.8857    7.3797 C.3     2  LIG2        0.0711
     17 H          12.9490    3.5188    6.8471 H       2  LIG2        0.0583
     18 H          11.5083    3.2836    7.5162 H       2  LIG2        0.0583
     19 C          12.2796    1.5820    6.6519 C.3     2  LIG2        0.0711
     20 H          11.9098    1.7358    5.7465 H       2  LIG2        0.0583
     21 H          13.1720    1.1629    6.5574 H       2  LIG2        0.0583
     22 C          11.3723   -0.6022    6.8520 C.3     2  LIG2        0.0711
     23 H          12.2593   -1.0335    6.9485 H       2  LIG2        0.0583
     24 H          11.1458   -0.5688    5.8884 H       2  LIG2        0.0583
     25 C          10.3437   -1.3891    7.5874 C.3     2  LIG2        0.0711
     26 H           9.4691   -0.9277    7.5364 H       2  LIG2        0.0583
     27 H          10.2461   -2.2835    7.1744 H       2  LIG2        0.0583
     28 C           9.8219   -2.3290    9.6818 C.3     2  LIG2        0.0711
     29 H           9.7796   -3.2356    9.2888 H       2  LIG2        0.0583
     30 H           8.9170   -1.9295    9.6392 H       2  LIG2        0.0583
     31 C          10.2686   -2.4153   11.1036 C.3     2  LIG2        0.0711
     32 H           9.6755   -3.0281   11.6059 H       2  LIG2        0.0583
     33 H          11.1923   -2.7709   11.1453 H       2  LIG2        0.0583
     34 C          10.6571   -1.1336   13.0419 C.3     2  LIG2        0.0711
     35 H          11.5622   -1.5299   13.0975 H       2  LIG2        0.0583
     36 H          10.0398   -1.6894   13.5812 H       2  LIG2        0.0583
     37 C          10.6806    0.2604   13.5754 C.3     2  LIG2        0.0711
     38 H           9.8149    0.7047   13.3901 H       2  LIG2        0.0583
     39 H          10.8187    0.2425   14.5544 H       2  LIG2        0.0583
     40 C          11.8649    2.2965   13.4827 C.3     2  LIG2        0.0711
     41 H          12.0028    2.2574   14.4617 H       2  LIG2        0.0583
     42 H          11.0436    2.8181   13.3032 H       2  LIG2        0.0583
     43 C          13.0399    2.9426   12.8227 C.3     2  LIG2        0.0711
     44 H          13.1906    3.8435   13.2047 H       2  LIG2        0.0583
     45 H          13.8542    2.3990   12.9701 H       2  LIG2        0.0583
     46 C          13.8485    3.5757   10.6782 C.3     2  LIG2        0.0711
     47 H          14.5941    2.9247   10.6472 H       2  LIG2        0.0583
     48 H          14.1777    4.4066   11.1019 H       2  LIG2        0.0583
     49 C          13.3683    3.8679    9.2870 C.3     2  LIG2        0.0711
     50 H          12.5772    4.4628    9.3235 H       2  LIG2        0.0583
     51 H          14.0810    4.3301    8.7761 H       2  LIG2        0.0583
     52 O          11.4145    0.7209    7.3884 O.3     2  LIG2       -0.3752
     53 O          10.7404   -1.5256    8.9496 O.3     2  LIG2       -0.3752
     54 O          10.2233   -1.1099   11.6821 O.3     2  LIG2       -0.3752
     55 O          11.7373    0.9830   12.9524 O.3     2  LIG2       -0.3752
     56 O          12.7672    3.0413   11.4324 O.3     2  LIG2       -0.3752
     57 O          13.0237    2.6497    8.6356 O.3     2  LIG2       -0.3752
     58 N          10.8165    1.3094   10.1391 N.4     1  LIG1        0.3836
     59 H          11.0492    1.0416    9.3003 H       1  LIG1        0.2316
     60 H          10.4618    0.5371   10.4850 H       1  LIG1        0.2316
     61 H          11.5474    1.4892   10.6732 H       1  LIG1        0.2316
     62 O           9.9610    2.4259   10.0369 O.3     1  LIG1       -0.3476
     63 H           9.2386    2.2135   10.5805 H       1  LIG1        0.2692
@<TRIPOS>BOND
     1    20    19    1
     2    24    22    1
     3    21    19    1
     4    19    16    1
     5    19    52    1
     6    17    16    1
     7    22    23    1
     8    22    52    1
     9    22    25    1
    10    27    25    1
    11    16    18    1
    12    16    57    1
    13    26    25    1
    14    25    53    1
    15    57    49    1
    16    51    49    1
    17    53    28    1
    18    49    50    1
    19    49    46    1
    20    29    28    1
    21    59    58    1
    22     6     3    2
    23    30    28    1
    24    28    31    1
    25    62    58    1
    26    62    63    1
    27     7     3    2
    28    58    60    1
    29    58    61    1
    30     3     1    1
    31     3    12    1
    32    47    46    1
    33    46    48    1
    34    46    56    1
    35    10     8    1
    36    15    12    1
    37    31    33    1
    38    31    32    1
    39    31    54    1
    40    11     8    1
    41     1     2    1
    42    56    43    1
    43    12    14    1
    44    12    13    1
    45     8     9    1
    46     8     2    1
    47    54    34    1
    48     2     5    2
    49     2     4    2
    50    43    45    1
    51    43    44    1
    52    43    40    1
    53    55    40    1
    54    55    37    1
    55    34    35    1
    56    34    37    1
    57    34    36    1
    58    42    40    1
    59    38    37    1
    60    40    41    1
    61    37    39    1
