@<TRIPOS>MOLECULE
L-valine:D-2-aminobutanoic acid
 35 33 0 0 0
SMALL
GASTEIGER

@<TRIPOS>ATOM
      1 OXT         2.6117   -0.8778    4.9626 O.co2   1  VAL1       -0.2400
      2 O           1.0916    0.5071    4.0595 O.co2   1  VAL1       -0.2400
      3 N           4.5482    0.9828    4.6856 N.4     1  VAL1        0.2291
      4 H1          5.0121    0.1660    4.6860 H       1  VAL1        0.2003
      5 H2          5.1376    1.6596    4.4523 H       1  VAL1        0.2003
      6 H3          4.1416    1.1712    5.5192 H       1  VAL1        0.2003
      7 C           2.2742    0.1404    4.3067 C.2     1  VAL1        0.4029
      8 CA          3.4198    0.9751    3.7044 C.3     1  VAL1        0.0809
      9 HA          3.1142    1.8825    3.5555 H       1  VAL1        0.0972
     10 CB          3.8863    0.3616    2.3648 C.3     1  VAL1        0.0070
     11 HB          4.0876   -0.5643    2.5204 H       1  VAL1        0.0356
     12 CG1         2.7774    0.4291    1.3156 C.3     1  VAL1       -0.0570
     13 HG11        1.9434   -0.0569    1.6676 H       1  VAL1        0.0234
     14 HG12        3.0961   -0.0237    0.4515 H       1  VAL1        0.0234
     15 HG13        2.5473    1.4130    1.1232 H       1  VAL1        0.0234
     16 CG2         5.1564    1.0323    1.8258 C.3     1  VAL1       -0.0570
     17 HG21        5.9300    1.0147    2.4629 H       1  VAL1        0.0234
     18 HG22        5.0734    1.9583    1.6652 H       1  VAL1        0.0234
     19 HG23        5.4146    0.6259    0.9360 H       1  VAL1        0.0234
     20 OXT        -2.3288    4.6902    5.1126 O.co2   1  LIG1       -0.2400
     21 O          -3.9303    3.3364    4.3216 O.co2   1  LIG1       -0.2400
     22 N          -0.3971    2.8697    4.6041 N.4     1  LIG1        0.2289
     23 H1         -0.0113    3.6890    4.4902 H       1  LIG1        0.2002
     24 H2          0.2284    2.2286    4.3728 H       1  LIG1        0.2002
     25 H3         -0.6628    2.7407    5.5045 H       1  LIG1        0.2002
     26 C          -2.7250    3.6734    4.4943 C.2     1  LIG1        0.4026
     27 CA         -1.6599    2.8107    3.8076 C.3     1  LIG1        0.0783
     28 HA         -1.9618    1.9156    3.7637 H       1  LIG1        0.0969
     29 C          -1.4327    3.3410    2.3873 C.3     1  LIG1       -0.0019
     30 H          -2.2394    3.3597    1.9478 H       1  LIG1        0.0323
     31 H          -1.1254    4.2059    2.4414 H       1  LIG1        0.0323
     32 C          -0.4457    2.5226    1.5630 C.3     1  LIG1       -0.0596
     33 H          -0.3009    2.9626    0.6913 H       1  LIG1        0.0232
     34 H          -0.8106    1.6169    1.4180 H       1  LIG1        0.0232
     35 H           0.4132    2.4586    2.0457 H       1  LIG1        0.0232
@<TRIPOS>BOND
     1    14    12    1
     2    33    32    1
     3    19    16    1
     4    15    12    1
     5    12    13    1
     6    12    10    1
     7    34    32    1
     8    32    35    1
     9    32    29    1
    10    18    16    1
    11    16    10    1
    12    16    17    1
    13    30    29    1
    14    10    11    1
    15    10     8    1
    16    29    31    1
    17    29    27    1
    18     9     8    1
    19     8     7    1
    20     8     3    1
    21    28    27    1
    22    27    26    1
    23    27    22    1
    24     2     7   ar
    25     7     1   ar
    26    21    26   ar
    27    24    22    1
    28     5     3    1
    29    23    22    1
    30    26    20   ar
    31    22    25    1
    32     3     4    1
    33     3     6    1
