@<TRIPOS>MOLECULE
C22 H20 O6
 48 50 0 0 0
SMALL
GASTEIGER

@<TRIPOS>ATOM
      1 O           2.8840   -0.1206    1.0406 O.3     1  LIG1       -0.4526
      2 O           2.4743    0.8912    2.9227 O.2     1  LIG1       -0.2447
      3 O           5.7583   -0.6239    4.8180 O.2     1  LIG1       -0.2449
      4 O           3.8903    0.5393    4.9729 O.3     1  LIG1       -0.4770
      5 O           1.3013   -1.0649   -4.7834 O.3     1  LIG1       -0.4951
      6 O          13.4179   -1.1670    2.5353 O.3     1  LIG1       -0.4951
      7 C           3.2536    0.1936    2.2826 C.2     1  LIG1        0.3470
      8 C           4.5642   -0.2336    2.7904 C.2     1  LIG1        0.1458
      9 C           5.5477   -0.5393    1.8893 C.2     1  LIG1       -0.0226
     10 C           5.1412   -0.6838    0.4398 C.3     1  LIG1        0.0149
     11 C           3.7174   -1.0987    0.3111 C.3     1  LIG1        0.1323
     12 C           3.1386   -1.1586   -1.0787 C.ar    1  LIG1       -0.0067
     13 C           2.1645   -2.0759   -1.3660 C.ar    1  LIG1       -0.0516
     14 C           1.5229   -2.0836   -2.5902 C.ar    1  LIG1       -0.0196
     15 C           1.8859   -1.1686   -3.5497 C.ar    1  LIG1        0.1201
     16 C           2.8790   -0.2658   -3.3018 C.ar    1  LIG1       -0.0196
     17 C           3.5100   -0.2474   -2.0514 C.ar    1  LIG1       -0.0516
     18 C           4.8097   -0.1176    4.2697 C.2     1  LIG1        0.3440
     19 C           6.9448   -0.6569    2.2254 C.2     1  LIG1       -0.0569
     20 C           7.9291   -0.9857    1.3803 C.2     1  LIG1       -0.0543
     21 C           9.3322   -1.0234    1.7176 C.ar    1  LIG1       -0.0248
     22 C          10.2723   -1.5082    0.8058 C.ar    1  LIG1       -0.0511
     23 C          11.6187   -1.5658    1.1014 C.ar    1  LIG1       -0.0194
     24 C          12.0702   -1.0948    2.3208 C.ar    1  LIG1        0.1201
     25 C          11.1714   -0.6000    3.2434 C.ar    1  LIG1       -0.0194
     26 C           9.8264   -0.5586    2.9394 C.ar    1  LIG1       -0.0511
     27 C          13.9045   -0.7422    3.8143 C.3     1  LIG1        0.0788
     28 C           0.2954   -2.0183   -5.1255 C.3     1  LIG1        0.0788
     29 H           3.2619    0.9450    4.2792 H       1  LIG1        0.2954
     30 H           5.7307   -1.3599   -0.0119 H       1  LIG1        0.0353
     31 H           5.3386    0.2920    0.0000 H       1  LIG1        0.0353
     32 H           3.5633   -2.0514    0.7867 H       1  LIG1        0.0789
     33 H           1.9605   -2.8273   -0.6675 H       1  LIG1        0.0623
     34 H           0.9035   -2.8350   -2.8011 H       1  LIG1        0.0654
     35 H           3.0470    0.5071   -3.9454 H       1  LIG1        0.0654
     36 H           4.2288    0.4379   -1.9429 H       1  LIG1        0.0623
     37 H           7.1939   -0.4226    3.1230 H       1  LIG1        0.0621
     38 H           7.7097   -1.2600    0.4291 H       1  LIG1        0.0624
     39 H           9.9110   -1.8593   -0.0834 H       1  LIG1        0.0625
     40 H          12.3461   -1.8593    0.4530 H       1  LIG1        0.0654
     41 H          11.4231   -0.2689    4.1004 H       1  LIG1        0.0654
     42 H           9.2099   -0.1460    3.5879 H       1  LIG1        0.0625
     43 H          13.7325    0.2228    3.9216 H       1  LIG1        0.0660
     44 H          13.4657   -1.3676    4.5295 H       1  LIG1        0.0660
     45 H          14.9089   -0.9834    3.8858 H       1  LIG1        0.0660
     46 H          -0.4929   -1.9054   -4.5057 H       1  LIG1        0.0660
     47 H           0.0438   -1.8516   -5.9837 H       1  LIG1        0.0660
     48 H           0.6137   -3.0117   -5.1017 H       1  LIG1        0.0660
@<TRIPOS>BOND
     1    47    28    1
     2    28    48    1
     3    28     5    1
     4    28    46    1
     5     5    15    1
     6    35    16    1
     7    15    16   ar
     8    15    14   ar
     9    16    17   ar
    10    34    14    1
    11    14    13   ar
    12    17    36    1
    13    17    12   ar
    14    13    12   ar
    15    13    33    1
    16    12    11    1
    17    39    22    1
    18    30    10    1
    19    31    10    1
    20    11    10    1
    21    11    32    1
    22    11     1    1
    23    38    20    1
    24    10     9    1
    25    40    23    1
    26    22    23   ar
    27    22    21   ar
    28     1     7    1
    29    23    24   ar
    30    20    21    1
    31    20    19    2
    32    21    26   ar
    33     9    19    1
    34     9     8    2
    35    19    37    1
    36     7     8    1
    37     7     2    2
    38    24     6    1
    39    24    25   ar
    40     6    27    1
    41     8    18    1
    42    26    25   ar
    43    26    42    1
    44    25    41    1
    45    27    45    1
    46    27    43    1
    47    27    44    1
    48    18     3    2
    49    18     4    1
    50    29     4    1
