@<TRIPOS>MOLECULE
C36 H37 N3 O9 S1
 86 91 0 0 0
SMALL
GASTEIGER

@<TRIPOS>ATOM
      1 S           3.6745    7.2780    0.6217 S.3     1  LIG1       -0.1235
      2 N           1.4791    3.1649   -1.3573 N.am    1  LIG1       -0.1840
      3 C           2.0481    4.2115   -0.6671 C.2     1  LIG1        0.4401
      4 O           3.2192    4.4215   -0.4873 O.2     1  LIG1       -0.2032
      5 N           0.9801    5.0081   -0.1973 N.am    1  LIG1       -0.2682
      6 O          -0.5010    2.2632   -0.3650 O.3     1  LIG1       -0.3402
      7 C           0.0261    3.1849   -1.3017 C.3     1  LIG1        0.1981
      8 C          -0.2874    4.6015   -0.7847 C.3     1  LIG1        0.2019
      9 C          -1.3463    4.3382    0.2844 C.3     1  LIG1        0.2507
     10 C          -0.9048    2.9849    0.8162 C.3     1  LIG1        0.1513
     11 C          -1.9584    2.1849    1.5528 C.3     1  LIG1        0.1670
     12 C          -1.3892    0.8816    2.0734 C.3     1  LIG1        0.1319
     13 O          -2.5945    4.2015   -0.4234 O.3     1  LIG1       -0.4442
     14 C          -3.6438    4.9465    0.0093 C.2     1  LIG1        0.3049
     15 O          -3.5997    5.6381    0.9598 O.2     1  LIG1       -0.2511
     16 C          -4.8315    4.7531   -0.8820 C.3     1  LIG1        0.0333
     17 O          -2.3027    3.0049    2.6979 O.3     1  LIG1       -0.4553
     18 C          -3.6027    3.2315    2.9184 C.2     1  LIG1        0.3044
     19 O          -4.4820    2.8032    2.2263 O.2     1  LIG1       -0.2512
     20 C          -3.8098    4.1015    4.1070 C.3     1  LIG1        0.0332
     21 O          -2.4930    0.1400    2.6238 O.3     1  LIG1       -0.4610
     22 C          -2.2240   -1.1483    2.9304 C.2     1  LIG1        0.3041
     23 O          -1.1445   -1.6416    2.8155 O.2     1  LIG1       -0.2512
     24 C          -3.4750   -1.8633    3.3686 C.3     1  LIG1        0.0332
     25 C           1.0735    6.2164    0.4873 C.2     1  LIG1        0.3575
     26 O           0.1484    6.9881    0.4429 O.2     1  LIG1       -0.2228
     27 C           2.2732    6.4347    1.3823 C.3     1  LIG1        0.1769
     28 C           2.4459    7.8597    1.8511 C.3     1  LIG1        0.0634
     29 C           2.1988    2.1216   -2.0049 C.ar    1  LIG1        0.0447
     30 C           3.4792    2.3366   -2.5005 C.ar    1  LIG1       -0.0400
     31 C           4.1508    1.2999   -3.1287 C.ar    1  LIG1       -0.0600
     32 C           3.5744    0.0650   -3.2621 C.ar    1  LIG1       -0.0616
     33 C           2.3023   -0.1417   -2.7600 C.ar    1  LIG1       -0.0600
     34 C           1.6173    0.8750   -2.1300 C.ar    1  LIG1       -0.0400
     35 C           2.4869    5.3215    2.3708 C.ar    1  LIG1       -0.0166
     36 C           3.6657    4.6315    2.5126 C.ar    1  LIG1       -0.0566
     37 C           3.7882    3.6415    3.4668 C.ar    1  LIG1       -0.0614
     38 C           2.7246    3.3349    4.2970 C.ar    1  LIG1       -0.0617
     39 C           1.5481    4.0098    4.1432 C.ar    1  LIG1       -0.0614
     40 C           1.4144    5.0148    3.1982 C.ar    1  LIG1       -0.0566
     41 C           2.8299    8.1180    3.2677 C.ar    1  LIG1       -0.0320
     42 C           1.8416    8.5897    4.1274 C.ar    1  LIG1       -0.0557
     43 C           2.0631    8.7080    5.4838 C.ar    1  LIG1       -0.0404
     44 C           3.2885    8.3363    6.0489 C.ar    1  LIG1        0.0292
     45 C           4.2942    7.9014    5.1743 C.ar    1  LIG1       -0.0404
     46 C           4.0530    7.7764    3.8282 C.ar    1  LIG1       -0.0557
     47 N           3.5027    8.3930    7.4182 N.pl3   1  LIG1       -0.3360
     48 C           4.8255    8.3130    7.9445 C.3     1  LIG1        0.0004
     49 C           2.5091    8.9363    8.3012 C.3     1  LIG1        0.0004
     50 H          -0.6155    5.2831   -1.4546 H       1  LIG1        0.1100
     51 H           0.4943    5.0331    1.0099 H       1  LIG1        0.3865
     52 H          -0.1932    3.1332    1.5194 H       1  LIG1        0.0679
     53 H           0.5465    5.5331    3.1222 H       1  LIG1        0.0621
     54 H           3.9279    3.2332   -2.3996 H       1  LIG1        0.0636
     55 H           2.8110    2.5999    4.9844 H       1  LIG1        0.0618
     56 H           4.6721    3.1499    3.5669 H       1  LIG1        0.0618
     57 H           4.0704   -0.7000   -3.7151 H       1  LIG1        0.0618
     58 H           0.6919    0.7166   -1.7510 H       1  LIG1        0.0636
     59 H           0.7583    3.7832    4.7528 H       1  LIG1        0.0618
     60 H          -2.7243    1.9499    0.9450 H       1  LIG1        0.0796
     61 H          -0.8781    0.3667    1.3712 H       1  LIG1        0.0736
     62 H          -0.6421    1.0166    2.7331 H       1  LIG1        0.0736
     63 H           5.0652    1.4666   -3.5206 H       1  LIG1        0.0618
     64 H           1.8688   -1.0500   -2.8350 H       1  LIG1        0.0618
     65 H          -3.2713   -2.2332    4.2988 H       1  LIG1        0.0342
     66 H          -3.6212   -2.6166    2.7423 H       1  LIG1        0.0342
     67 H          -4.3999   -1.4499    3.4928 H       1  LIG1        0.0342
     68 H          -0.3587    2.9332   -2.2143 H       1  LIG1        0.0883
     69 H           4.4435    4.8331    1.8993 H       1  LIG1        0.0621
     70 H           5.2179    7.6830    5.5310 H       1  LIG1        0.0636
     71 H           0.9461    8.8496    3.7522 H       1  LIG1        0.0621
     72 H           4.7957    7.4330    3.2334 H       1  LIG1        0.0621
     73 H           1.3322    9.0663    6.0776 H       1  LIG1        0.0636
     74 H          -5.0934    3.7665   -0.8894 H       1  LIG1        0.0342
     75 H          -4.5913    4.9831   -1.8529 H       1  LIG1        0.0342
     76 H          -5.6096    5.2831   -0.6207 H       1  LIG1        0.0342
     77 H           5.3800    9.0496    7.5322 H       1  LIG1        0.0428
     78 H           5.2331    7.4330    7.6248 H       1  LIG1        0.0428
     79 H           5.0150    8.3497    8.9312 H       1  LIG1        0.0428
     80 H           1.6564    8.3997    8.1715 H       1  LIG1        0.0428
     81 H           2.3303    9.8829    8.0047 H       1  LIG1        0.0428
     82 H           2.6314    8.9830    9.3017 H       1  LIG1        0.0428
     83 H          -3.3466    4.9831    3.9746 H       1  LIG1        0.0342
     84 H          -3.4051    3.6499    4.9196 H       1  LIG1        0.0342
     85 H          -4.7701    4.2665    4.2988 H       1  LIG1        0.0342
     86 H           2.3013    8.6330    1.2044 H       1  LIG1        0.0485
@<TRIPOS>BOND
     1    57    32    1
     2    63    31    1
     3    32    31   ar
     4    32    33   ar
     5    31    30   ar
     6    64    33    1
     7    33    34   ar
     8    30    54    1
     9    30    29   ar
    10    68     7    1
    11    34    29   ar
    12    34    58    1
    13    29     2    1
    14    75    16    1
    15    50     8    1
    16     2     7    1
    17     2     3   am
    18     7     8    1
    19     7     6    1
    20    74    16    1
    21    16    76    1
    22    16    14    1
    23     8     5    1
    24     8     9    1
    25     3     4    2
    26     3     5    1
    27    13    14    1
    28    13     9    1
    29     6    10    1
    30     5    25    1
    31     5    51    1
    32    14    15    2
    33     9    10    1
    34    26    25    2
    35    25    27    1
    36     1    27    1
    37     1    28    1
    38    10    52    1
    39    10    11    1
    40    60    11    1
    41    86    28    1
    42    61    12    1
    43    27    28    1
    44    27    35    1
    45    11    12    1
    46    11    17    1
    47    28    41    1
    48    69    36    1
    49    12    21    1
    50    12    62    1
    51    19    18    2
    52    35    36   ar
    53    35    40   ar
    54    36    37   ar
    55    21    22    1
    56    17    18    1
    57    66    24    1
    58    23    22    2
    59    18    20    1
    60    22    24    1
    61    53    40    1
    62    40    39   ar
    63    72    46    1
    64    41    46   ar
    65    41    42   ar
    66    24    67    1
    67    24    65    1
    68    37    56    1
    69    37    38   ar
    70    71    42    1
    71    46    45   ar
    72    83    20    1
    73    20    85    1
    74    20    84    1
    75    42    43   ar
    76    39    38   ar
    77    39    59    1
    78    38    55    1
    79    45    70    1
    80    45    44   ar
    81    43    44   ar
    82    43    73    1
    83    44    47    1
    84    47    48    1
    85    47    49    1
    86    77    48    1
    87    78    48    1
    88    48    79    1
    89    81    49    1
    90    80    49    1
    91    49    82    1
