@<TRIPOS>MOLECULE
1,10,13,18-tetraazatetracyclo[8.6.6.0^3,8^]docasa-3,5,7-triene-11,17-dione monohydrate
 51 52 0 0 0
SMALL
GASTEIGER

@<TRIPOS>ATOM
      1 N           6.1085    6.2674   11.8045 N.am    1  LIG1       -0.3141
      2 H           6.7515    6.0414   11.2783 H       1  LIG1        0.1487
      3 C           6.2798    7.3538   12.5416 C.2     1  LIG1        0.2143
      4 O           5.4281    7.7797   13.3402 O.2     1  LIG1       -0.2758
      5 C           7.5999    8.0554   12.3469 C.3     1  LIG1        0.0367
      6 H           8.2506    7.6601   12.9641 H       1  LIG1        0.0371
      7 H           7.4878    8.9951   12.6041 H       1  LIG1        0.0371
      8 C           8.1945    8.0137   10.9318 C.3     1  LIG1        0.0075
      9 H           7.5341    8.3631   10.2973 H       1  LIG1        0.0431
     10 H           8.9808    8.5978   10.8977 H       1  LIG1        0.0431
     11 N           8.5882    6.6561   10.5151 N.3     1  LIG1       -0.2962
     12 C           9.8868    6.3114   11.1299 C.3     1  LIG1        0.0148
     13 H           9.8610    6.5599   12.0779 H       1  LIG1        0.0442
     14 H          10.5887    6.8450   10.7013 H       1  LIG1        0.0442
     15 C          10.2595    4.8413   11.0226 C.3     1  LIG1        0.0244
     16 H          10.4453    4.6175   10.0871 H       1  LIG1        0.0474
     17 H          11.0715    4.6704   11.5435 H       1  LIG1        0.0474
     18 N           9.1813    4.0053   11.5164 N.am    1  LIG1       -0.3141
     19 H           8.8510    4.2331   12.2758 H       1  LIG1        0.1487
     20 C           8.4962    3.1837   10.7215 C.2     1  LIG1        0.2143
     21 O           8.8866    2.8595    9.5929 O.2     1  LIG1       -0.2758
     22 C           7.1725    2.6841   11.2606 C.3     1  LIG1        0.0367
     23 H           6.9651    3.1381   12.1040 H       1  LIG1        0.0371
     24 H           7.2271    1.7219   11.4349 H       1  LIG1        0.0371
     25 C           6.0717    2.9634   10.2383 C.3     1  LIG1        0.0075
     26 H           6.2273    2.4106    9.4442 H       1  LIG1        0.0431
     27 H           5.2080    2.7008   10.6202 H       1  LIG1        0.0431
     28 N           6.0051    4.3800    9.8302 N.3     1  LIG1       -0.2962
     29 C           4.7698    5.0405   10.2490 C.3     1  LIG1        0.0148
     30 H           4.0164    4.4214   10.1545 H       1  LIG1        0.0442
     31 H           4.6002    5.8170    9.6750 H       1  LIG1        0.0442
     32 C           4.8855    5.4900   11.6989 C.3     1  LIG1        0.0244
     33 H           4.1116    6.0376   11.9488 H       1  LIG1        0.0474
     34 H           4.9239    4.7129   12.2950 H       1  LIG1        0.0474
     35 C           6.3392    4.5566    8.4016 C.3     1  LIG1        0.0244
     36 H           5.6712    4.0835    7.8628 H       1  LIG1        0.0476
     37 H           7.2094    4.1403    8.2283 H       1  LIG1        0.0476
     38 C           6.3935    6.0032    7.9480 C.ar    1  LIG1       -0.0290
     39 C           5.3682    6.4499    7.1105 C.ar    1  LIG1       -0.0570
     40 H           4.6624    5.8634    6.9052 H       1  LIG1        0.0621
     41 C           5.3550    7.7229    6.5735 C.ar    1  LIG1       -0.0614
     42 H           4.6493    7.9929    6.0135 H       1  LIG1        0.0618
     43 C           6.3866    8.5979    6.8641 C.ar    1  LIG1       -0.0614
     44 H           6.3892    9.4671    6.5081 H       1  LIG1        0.0618
     45 C           7.4158    8.1726    7.6893 C.ar    1  LIG1       -0.0570
     46 H           8.1197    8.7668    7.8793 H       1  LIG1        0.0621
     47 C           7.4452    6.8908    8.2490 C.ar    1  LIG1       -0.0290
     48 C           8.6759    6.5012    9.0446 C.3     1  LIG1        0.0244
     49 H           8.8832    5.5642    8.8479 H       1  LIG1        0.0476
     50 H           9.4299    7.0397    8.7256 H       1  LIG1        0.0476
     51 O           8.3473    1.4602    7.1668 O.3     2  HOH2        0.0000
@<TRIPOS>BOND
     1    42    41    1
     2    44    43    1
     3    41    43   ar
     4    41    39   ar
     5    43    45   ar
     6    40    39    1
     7    39    38   ar
     8    45    46    1
     9    45    47   ar
    10    36    35    1
    11    38    47   ar
    12    38    35    1
    13    37    35    1
    14    47    48    1
    15    35    28    1
    16    50    48    1
    17    49    48    1
    18    48    11    1
    19    26    25    1
    20    21    20    2
    21    31    29    1
    22    28    25    1
    23    28    29    1
    24    16    15    1
    25    30    29    1
    26    25    27    1
    27    25    22    1
    28    29    32    1
    29     9     8    1
    30    11     8    1
    31    11    12    1
    32    14    12    1
    33    20    22    1
    34    20    18   am
    35    10     8    1
    36     8     5    1
    37    15    12    1
    38    15    18    1
    39    15    17    1
    40    12    13    1
    41    22    24    1
    42    22    23    1
    43     2     1    1
    44    18    19    1
    45    32     1    1
    46    32    33    1
    47    32    34    1
    48     1     3   am
    49     5     3    1
    50     5     7    1
    51     5     6    1
    52     3     4    2
