@<TRIPOS>MOLECULE
2009966.cif
 111 120 0 0 0
SMALL
GASTEIGER

@<TRIPOS>ATOM
      1 O           5.7849    0.4456    3.5531 O.2     1  LIG1       -0.2748
      2 N           4.1895   -1.0734    4.0106 N.am    1  LIG1       -0.2850
      3 C           7.8273   -3.0773    3.6440 C.3     1  LIG1       -0.0210
      4 C           7.3865   -2.1795    2.5230 C.3     1  LIG1       -0.0206
      5 C           8.4239   -0.9908    2.4267 C.3     1  LIG1       -0.0482
      6 C           8.7029   -0.8519    3.8046 C.3     1  LIG1       -0.0459
      7 C           7.8248   -1.7732    4.4922 C.3     1  LIG1       -0.0121
      8 C           6.4611   -1.7968    3.7082 C.3     1  LIG1        0.0570
      9 C           6.3540   -3.3027    4.0347 C.3     1  LIG1       -0.0320
     10 C           8.9607   -4.1218    3.6280 C.3     1  LIG1       -0.0587
     11 C           7.7663   -1.7785    5.9664 C.3     1  LIG1       -0.0581
     12 C           5.4623   -0.7352    3.7430 C.2     1  LIG1        0.2242
     13 C           3.0599   -0.2097    4.1979 C.ar    1  LIG1        0.0334
     14 C           1.8083   -0.6697    3.7591 C.ar    1  LIG1       -0.0405
     15 C           0.7510    0.1887    3.8500 C.ar    1  LIG1       -0.0600
     16 C           0.8755    1.4666    4.3798 C.ar    1  LIG1       -0.0616
     17 C           2.1209    1.8611    4.8480 C.ar    1  LIG1       -0.0600
     18 C           3.2057    1.0432    4.7223 C.ar    1  LIG1       -0.0405
     19 H           4.0301   -1.9489    4.0801 H       1  LIG1        0.1548
     20 H           6.9767   -2.5478    1.7551 H       1  LIG1        0.0316
     21 H           8.0440   -0.2189    2.0200 H       1  LIG1        0.0269
     22 H           9.2259   -1.2516    1.9799 H       1  LIG1        0.0269
     23 H           9.6182   -1.0026    4.0025 H       1  LIG1        0.0271
     24 H           8.4637    0.0419    4.0373 H       1  LIG1        0.0271
     25 H           5.8185   -3.8060    3.4220 H       1  LIG1        0.0281
     26 H           6.2195   -3.5177    4.9470 H       1  LIG1        0.0281
     27 H           8.7527   -4.8400    3.0287 H       1  LIG1        0.0235
     28 H           9.7540   -3.6815    3.3631 H       1  LIG1        0.0235
     29 H           9.0503   -4.4678    4.5216 H       1  LIG1        0.0235
     30 H           7.8049   -0.8715    6.2660 H       1  LIG1        0.0236
     31 H           6.9605   -2.1913    6.2259 H       1  LIG1        0.0236
     32 H           8.5260   -2.2634    6.2740 H       1  LIG1        0.0236
     33 H           1.6975   -1.5596    3.4380 H       1  LIG1        0.0636
     34 H          -0.0934   -0.0760    3.5210 H       1  LIG1        0.0618
     35 H           0.1382    2.0576    4.4039 H       1  LIG1        0.0618
     36 H           2.2168    2.7103    5.2895 H       1  LIG1        0.0618
     37 H           4.0737    1.3525    4.9898 H       1  LIG1        0.0636
     38 O           2.8557    9.4494    3.1865 O.2     2  LIG2       -0.2748
     39 N           3.5681    7.6840    1.9317 N.am    2  LIG2       -0.2850
     40 C           1.3400    6.1978    5.1824 C.3     2  LIG2       -0.0210
     41 C           2.3252    7.4403    5.5142 C.3     2  LIG2       -0.0206
     42 C           1.4621    8.5936    5.9369 C.3     2  LIG2       -0.0482
     43 C           0.2815    8.4258    4.9390 C.3     2  LIG2       -0.0459
     44 C           0.7173    7.2253    4.2193 C.3     2  LIG2       -0.0121
     45 C           2.2492    7.3014    3.9464 C.3     2  LIG2        0.0570
     46 C           2.3551    5.7693    4.1524 C.3     2  LIG2       -0.0320
     47 C           0.5579    5.3525    6.1670 C.3     2  LIG2       -0.0587
     48 C          -0.1669    6.7286    3.1250 C.3     2  LIG2       -0.0581
     49 C           2.9504    8.2358    2.9511 C.2     2  LIG2        0.2242
     50 C           4.3452    8.3892    0.9739 C.ar    2  LIG2        0.0334
     51 C           5.3776    7.7011    0.3879 C.ar    2  LIG2       -0.0405
     52 C           6.1685    8.3380   -0.5752 C.ar    2  LIG2       -0.0600
     53 C           5.9343    9.6237   -0.9284 C.ar    2  LIG2       -0.0616
     54 C           4.9119   10.2633   -0.3585 C.ar    2  LIG2       -0.0600
     55 C           4.0725    9.6748    0.6234 C.ar    2  LIG2       -0.0405
     56 H           3.5158    6.7928    1.8514 H       2  LIG2        0.1548
     57 H           3.1496    7.2869    5.9610 H       2  LIG2        0.0316
     58 H           1.9129    9.4298    5.8112 H       2  LIG2        0.0269
     59 H           1.1582    8.5176    6.8413 H       2  LIG2        0.0269
     60 H          -0.5417    8.2620    5.3778 H       2  LIG2        0.0271
     61 H           0.2179    9.1650    4.3450 H       2  LIG2        0.0271
     62 H           3.1895    5.4390    4.4895 H       2  LIG2        0.0281
     63 H           1.9976    5.2542    3.4353 H       2  LIG2        0.0281
     64 H           0.0859    4.6828    5.6801 H       2  LIG2        0.0235
     65 H           1.1669    4.9397    6.7851 H       2  LIG2        0.0235
     66 H          -0.0436    5.9226    6.6299 H       2  LIG2        0.0235
     67 H          -0.4733    7.4809    2.5979 H       2  LIG2        0.0236
     68 H           0.2989    6.1179    2.5685 H       2  LIG2        0.0236
     69 H          -0.9241    6.3053    3.5317 H       2  LIG2        0.0236
     70 H           5.5520    6.8007    0.6314 H       2  LIG2        0.0636
     71 H           6.8659    7.8557   -1.0113 H       2  LIG2        0.0618
     72 H           6.5147   10.0733   -1.5277 H       2  LIG2        0.0618
     73 H           4.7151   11.1532   -0.6421 H       2  LIG2        0.0618
     74 H           3.3588   10.1519    1.0381 H       2  LIG2        0.0636
     75 O           4.4660    4.9462    1.7444 O.2     3  LIG3       -0.2748
     76 N           5.5370    3.2424    2.7772 N.am    3  LIG3       -0.2850
     77 C           3.3302    1.5740   -0.2890 C.3     3  LIG3       -0.0210
     78 C           2.8445    1.9226    1.0916 C.3     3  LIG3       -0.0206
     79 C           1.6489    2.8322    0.9632 C.3     3  LIG3       -0.0482
     80 C           2.1122    3.7300   -0.1712 C.3     3  LIG3       -0.0459
     81 C           3.4635    3.1101   -0.4736 C.3     3  LIG3       -0.0121
     82 C           4.1185    2.7693    0.8963 C.3     3  LIG3        0.0570
     83 C           4.7724    1.5229    0.2408 C.3     3  LIG3       -0.0320
     84 C           2.6701    0.6723   -1.3190 C.3     3  LIG3       -0.0587
     85 C           4.2045    3.7365   -1.6374 C.3     3  LIG3       -0.0581
     86 C           4.7163    3.7614    1.8247 C.2     3  LIG3        0.2242
     87 C           6.3179    3.9659    3.7136 C.ar    3  LIG3        0.0334
     88 C           7.2183    3.1939    4.4440 C.ar    3  LIG3       -0.0405
     89 C           8.0565    3.8322    5.3831 C.ar    3  LIG3       -0.0600
     90 C           8.0117    5.1874    5.5650 C.ar    3  LIG3       -0.0616
     91 C           7.1386    5.8977    4.8881 C.ar    3  LIG3       -0.0600
     92 C           6.2843    5.3145    3.9517 C.ar    3  LIG3       -0.0405
     93 H           5.5769    2.3538    2.8414 H       3  LIG3        0.1548
     94 H           2.8445    1.2385    1.7551 H       3  LIG3        0.0316
     95 H           1.5181    3.3460    1.7498 H       3  LIG3        0.0269
     96 H           0.8568    2.3407    0.7438 H       3  LIG3        0.0269
     97 H           1.5331    3.6395   -0.9257 H       3  LIG3        0.0271
     98 H           2.1882    4.6487    0.0829 H       3  LIG3        0.0271
     99 H           4.9791    0.7995    0.8214 H       3  LIG3        0.0281
    100 H           5.4511    1.7247   -0.3986 H       3  LIG3        0.0281
    101 H           2.6876   -0.2280   -0.9953 H       3  LIG3        0.0235
    102 H           1.7560    0.9541   -1.4341 H       3  LIG3        0.0235
    103 H           3.1384    0.7405   -2.1431 H       3  LIG3        0.0235
    104 H           3.5967    3.8728   -2.3785 H       3  LIG3        0.0236
    105 H           4.5420    4.5792   -1.3458 H       3  LIG3        0.0236
    106 H           4.9106    3.1612   -1.9023 H       3  LIG3        0.0236
    107 H           7.2283    2.2437    4.3423 H       3  LIG3        0.0636
    108 H           8.7004    3.3250    5.8540 H       3  LIG3        0.0618
    109 H           8.5958    5.5871    6.2045 H       3  LIG3        0.0618
    110 H           7.0813    6.8295    5.0620 H       3  LIG3        0.0618
    111 H           5.6603    5.8466    3.4621 H       3  LIG3        0.0636
@<TRIPOS>BOND
     1   104    85    1
     2   103    84    1
     3   106    85    1
     4    85   105    1
     5    85    81    1
     6    72    53    1
     7   102    84    1
     8    84   101    1
     9    84    77    1
    10    71    52    1
    11    53    52   ar
    12    53    54   ar
    13    97    80    1
    14    73    54    1
    15    52    51   ar
    16    81    77    1
    17    81    80    1
    18    81    82    1
    19   100    83    1
    20    54    55   ar
    21    77    83    1
    22    77    78    1
    23    80    98    1
    24    80    79    1
    25    83    99    1
    26    83    82    1
    27    51    70    1
    28    51    50   ar
    29    55    50   ar
    30    55    74    1
    31    96    79    1
    32    82    78    1
    33    82    86    1
    34    79    78    1
    35    79    95    1
    36    50    39    1
    37    78    94    1
    38    75    86    2
    39    20     4    1
    40    86    76   am
    41    56    39    1
    42    39    49   am
    43    22     5    1
    44    21     5    1
    45     5     4    1
    46     5     6    1
    47     4     3    1
    48     4     8    1
    49    68    48    1
    50    67    48    1
    51    76    93    1
    52    76    87    1
    53    49    38    2
    54    49    45    1
    55    27    10    1
    56    48    69    1
    57    48    44    1
    58    28    10    1
    59    25     9    1
    60    63    46    1
    61    33    14    1
    62   111    92    1
    63    34    15    1
    64     1    12    2
    65    10     3    1
    66    10    29    1
    67     3     9    1
    68     3     7    1
    69     8    12    1
    70     8     9    1
    71     8     7    1
    72    87    92   ar
    73    87    88   ar
    74    12     2   am
    75    14    15   ar
    76    14    13   ar
    77     6    23    1
    78     6    24    1
    79     6     7    1
    80    15    16   ar
    81    45    46    1
    82    45    44    1
    83    45    41    1
    84    92    91   ar
    85     2    19    1
    86     2    13    1
    87     9    26    1
    88    46    62    1
    89    46    40    1
    90    13    18   ar
    91    44    43    1
    92    44    40    1
    93   107    88    1
    94    61    43    1
    95    16    35    1
    96    16    17   ar
    97    88    89   ar
    98     7    11    1
    99    18    17   ar
   100    18    37    1
   101    17    36    1
   102    91   110    1
   103    91    90   ar
   104    43    60    1
   105    43    42    1
   106    40    41    1
   107    40    47    1
   108    89    90   ar
   109    89   108    1
   110    41    42    1
   111    41    57    1
   112    90   109    1
   113    64    47    1
   114    58    42    1
   115    42    59    1
   116    11    31    1
   117    11    30    1
   118    11    32    1
   119    47    66    1
   120    47    65    1
