@<TRIPOS>MOLECULE
2-pyridinecarboxaldehyde benzoyl hydrazone hydrate
 31 31 0 0 0
SMALL
GASTEIGER

@<TRIPOS>ATOM
      1 N           0.8598    2.6991    1.3567 N.2     1  LIG1       -0.1859
      2 N           0.7770    3.4400    2.5093 N.am    1  LIG1       -0.2029
      3 H           0.7211    4.3070    2.4214 H       1  LIG1        0.1776
      4 N           0.7533    3.4601   -2.0866 N.ar    1  LIG1       -0.2540
      5 C           0.8350    3.3485    0.2705 C.2     1  LIG1        0.0710
      6 H           0.7454    4.2915    0.2241 H       1  LIG1        0.0867
      7 C           0.8826    2.6635   -1.0219 C.ar    1  LIG1        0.0833
      8 C           1.0327    1.2885   -1.1482 C.ar    1  LIG1       -0.0347
      9 H           1.1292    0.7484   -0.3805 H       1  LIG1        0.0639
     10 C           1.0313    0.7292   -2.3975 C.ar    1  LIG1       -0.0583
     11 H           1.1828   -0.1643   -2.5423 H       1  LIG1        0.0619
     12 C           0.8969    1.5391   -3.4976 C.ar    1  LIG1       -0.0436
     13 H           0.9155    1.1862   -4.3856 H       1  LIG1        0.0633
     14 C           0.7654    2.8882   -3.2958 C.ar    1  LIG1        0.0283
     15 H           0.6532    3.4735   -4.0051 H       1  LIG1        0.0830
     16 C           0.7311    2.8028    3.6993 C.2     1  LIG1        0.2633
     17 C           0.5453    3.6646    4.9017 C.ar    1  LIG1        0.0384
     18 C           0.8676    5.0146    4.9324 C.ar    1  LIG1       -0.0496
     19 H           1.2607    5.4621    4.1762 H       1  LIG1        0.0625
     20 C           0.6361    5.7553    6.0776 C.ar    1  LIG1       -0.0610
     21 H           0.8519    6.6555    6.0756 H       1  LIG1        0.0618
     22 C           0.1129    5.1683    7.1966 C.ar    1  LIG1       -0.0617
     23 H          -0.0100    5.6840    8.0280 H       1  LIG1        0.0618
     24 C          -0.1930    3.8353    7.1815 C.ar    1  LIG1       -0.0610
     25 H          -0.5767    3.4315    7.9661 H       1  LIG1        0.0618
     26 C           0.0250    3.0796    6.0455 C.ar    1  LIG1       -0.0496
     27 H          -0.2559    2.1709    5.9841 H       1  LIG1        0.0625
     28 O           0.8033    1.5809    3.7916 O.2     1  LIG1       -0.2685
     29 O           2.6524    0.2124    1.8415 O.3     2  HOH2       -0.4105
     30 H           2.0175    0.5577    2.1146 H       0  HOH0        0.2052
     31 H           3.2754    0.8732    1.9347 H       0  HOH0        0.2052
@<TRIPOS>BOND
     1    13    12    1
     2    15    14    1
     3    12    14   ar
     4    12    10   ar
     5    14     4   ar
     6    11    10    1
     7    10     8   ar
     8     4     7   ar
     9     8     7   ar
    10     8     9    1
    11     7     5    1
    12     6     5    1
    13     5     1    2
    14     1     2    1
    15    29    31    1
    16    29    30    1
    17     3     2    1
    18     2    16   am
    19    16    28    2
    20    16    17    1
    21    19    18    1
    22    17    18   ar
    23    17    26   ar
    24    18    20   ar
    25    27    26    1
    26    26    24   ar
    27    21    20    1
    28    20    22   ar
    29    24    22   ar
    30    24    25    1
    31    22    23    1
