@<TRIPOS>MOLECULE
(7S)-(7\a,7a\a,14\a,14a\b)-1,3,4,7,7a,8,9,10,11,13,14,14a-Dodecahydro-7,14- methano-2H,6H-dipyrido[1,2-a:1',2'-e][1,5]diazocin-5-ium bromide
 45 47 0 0 0
SMALL
GASTEIGER

@<TRIPOS>ATOM
      1 BR          5.3370    8.0120    9.4400 Br      1  LIG1        0.0000
      2 N           6.5414    8.4986    6.0050 N.3     2  LIG2       -0.2985
      3 C           5.2769    9.2834    5.8824 C.3     2  LIG2       -0.0008
      4 H           5.4866   10.2304    5.9153 H       2  LIG2        0.0427
      5 H           4.7030    9.0802    6.6382 H       2  LIG2        0.0427
      6 C           4.5187    8.9845    4.5839 C.3     2  LIG2       -0.0401
      7 H           3.6714    9.4553    4.5897 H       2  LIG2        0.0278
      8 H           5.0356    9.3038    3.8282 H       2  LIG2        0.0278
      9 C           4.2673    7.4839    4.4310 C.3     2  LIG2       -0.0505
     10 H           3.6510    7.1850    5.1168 H       2  LIG2        0.0266
     11 H           3.8658    7.3076    3.5650 H       2  LIG2        0.0266
     12 C           5.5565    6.7368    4.5510 C.3     2  LIG2       -0.0369
     13 H           6.1311    6.9700    3.8043 H       2  LIG2        0.0280
     14 H           5.3790    5.7844    4.5033 H       2  LIG2        0.0280
     15 C           6.2770    7.0453    5.8496 C.3     2  LIG2        0.0181
     16 H           5.6926    6.7679    6.5864 H       2  LIG2        0.0467
     17 C           7.5953    9.0340    5.1127 C.3     2  LIG2        0.0071
     18 H           7.7202    9.9810    5.2788 H       2  LIG2        0.0431
     19 H           7.3330    8.9189    4.1859 H       2  LIG2        0.0431
     20 C           8.9036    8.2783    5.3833 C.3     2  LIG2        0.0153
     21 H           9.5878    8.6276    4.7739 H       2  LIG2        0.0368
     22 C           8.6829    6.8120    5.0519 C.3     2  LIG2       -0.0348
     23 H           9.5062    6.3122    5.1686 H       2  LIG2        0.0275
     24 H           8.3909    6.7153    4.1316 H       2  LIG2        0.0275
     25 C           7.6102    6.2971    6.0058 C.3     2  LIG2        0.0153
     26 H           7.4541    5.3501    5.8068 H       2  LIG2        0.0368
     27 C           8.1386    6.4014    7.4293 C.3     2  LIG2       -0.0273
     28 H           7.4689    6.0649    8.0461 H       2  LIG2        0.0818
     29 H           8.9320    5.8510    7.5190 H       2  LIG2        0.0818
     30 N           8.4707    7.8010    7.7821 N.4     2  LIG2        0.2378
     31 H           7.6956    8.2761    7.7443 H       2  LIG2        0.2036
     32 C           9.4183    8.4277    6.7994 C.3     2  LIG2       -0.0168
     33 H          10.2696    7.9461    6.8586 H       2  LIG2        0.0854
     34 C           9.6811    9.9015    7.2024 C.3     2  LIG2       -0.0092
     35 H          10.3499   10.2809    6.6119 H       2  LIG2        0.0320
     36 H           8.8638   10.4131    7.0979 H       2  LIG2        0.0320
     37 C          10.1601   10.0090    8.6382 C.3     2  LIG2       -0.0432
     38 H          11.0396    9.6069    8.7164 H       2  LIG2        0.0269
     39 H          10.2331   10.9431    8.8858 H       2  LIG2        0.0269
     40 C           9.2019    9.3102    9.5766 C.3     2  LIG2       -0.0123
     41 H           9.5615    9.3360   10.4771 H       2  LIG2        0.0317
     42 H           8.3553    9.7843    9.5790 H       2  LIG2        0.0317
     43 C           8.9697    7.8924    9.1802 C.3     2  LIG2       -0.0316
     44 H           9.7986    7.3946    9.2599 H       2  LIG2        0.0814
     45 H           8.3208    7.4914    9.7805 H       2  LIG2        0.0814
@<TRIPOS>BOND
     1    11     9    1
     2    13    12    1
     3     8     6    1
     4    24    22    1
     5    19    17    1
     6     9    12    1
     7     9     6    1
     8     9    10    1
     9    14    12    1
    10    12    15    1
    11     6     7    1
    12     6     3    1
    13    21    20    1
    14    22    23    1
    15    22    20    1
    16    22    25    1
    17    17    18    1
    18    17    20    1
    19    17     2    1
    20    20    32    1
    21    26    25    1
    22    15     2    1
    23    15    25    1
    24    15    16    1
    25     3     4    1
    26     3     2    1
    27     3     5    1
    28    25    27    1
    29    35    34    1
    30    32    33    1
    31    32    34    1
    32    32    30    1
    33    36    34    1
    34    34    37    1
    35    27    29    1
    36    27    30    1
    37    27    28    1
    38    31    30    1
    39    30    43    1
    40    37    38    1
    41    37    39    1
    42    37    40    1
    43    43    44    1
    44    43    40    1
    45    43    45    1
    46    40    42    1
    47    40    41    1
