@<TRIPOS>MOLECULE
2009365.cif
 49 52 0 0 0
SMALL
GASTEIGER

@<TRIPOS>ATOM
      1 O           7.3962    0.1795    0.6858 O.3     1  LIG1       -0.4753
      2 O           7.3832    2.0622    3.4500 O.2     1  LIG1       -0.2880
      3 O           7.1877    3.7744    0.9315 O.3     1  LIG1       -0.3800
      4 O           9.4178    5.0344    1.1108 O.2     1  LIG1       -0.2926
      5 N          10.5267   -0.7955    2.0619 N.ar    1  LIG1       -0.3129
      6 C           7.0488    1.4967    1.1470 C.3     1  LIG1        0.1945
      7 C           7.9958    2.6131    0.6918 C.3     1  LIG1        0.1353
      8 C           9.3482    2.7051    1.3957 C.2     1  LIG1        0.0318
      9 C          10.0434    1.6045    1.7800 C.2     1  LIG1       -0.0249
     10 C           9.6627    0.2491    1.6896 C.ar    1  LIG1        0.0893
     11 C          11.7646   -0.7259    2.6663 C.ar    1  LIG1        0.0105
     12 C          12.4196   -1.8592    2.9798 C.ar    1  LIG1       -0.0451
     13 C          11.8644   -3.1102    2.6663 C.ar    1  LIG1       -0.0584
     14 C          10.6536   -3.1932    2.0588 C.ar    1  LIG1       -0.0374
     15 C           9.9383   -2.0162    1.7453 C.ar    1  LIG1        0.0531
     16 C           8.6830   -1.7739    1.1937 C.ar    1  LIG1        0.0171
     17 C           8.5264   -0.4050    1.1786 C.ar    1  LIG1        0.1503
     18 C           6.7026    1.4766    2.6331 C.2     1  LIG1        0.2065
     19 C           5.4684    0.7506    3.0566 C.ar    1  LIG1        0.0213
     20 C           5.0354    0.8864    4.3694 C.ar    1  LIG1       -0.0511
     21 C           3.8673    0.2760    4.7839 C.ar    1  LIG1       -0.0611
     22 C           3.1265   -0.4869    3.9067 C.ar    1  LIG1       -0.0617
     23 C           3.5439   -0.6328    2.6165 C.ar    1  LIG1       -0.0611
     24 C           4.7119   -0.0168    2.1839 C.ar    1  LIG1       -0.0511
     25 C           8.2445    2.4695   -0.8064 C.3     1  LIG1       -0.0278
     26 C           9.9888    4.0067    1.4801 C.2     1  LIG1        0.1591
     27 C          11.4018    4.1705    1.9775 C.3     1  LIG1       -0.0016
     28 C           7.6751   -2.8016    0.7777 C.3     1  LIG1       -0.0342
     29 H           6.2681    1.7111    0.6466 H       1  LIG1        0.0851
     30 H          10.8627    1.7503    2.1674 H       1  LIG1        0.0644
     31 H          12.1154    0.2020    2.8652 H       1  LIG1        0.0813
     32 H          13.2819   -1.7952    3.4304 H       1  LIG1        0.0632
     33 H          12.4165   -3.9719    2.8788 H       1  LIG1        0.0619
     34 H          10.2465   -4.0168    1.7951 H       1  LIG1        0.0638
     35 H           5.6029    1.4698    5.0145 H       1  LIG1        0.0625
     36 H           3.6034    0.4488    5.6671 H       1  LIG1        0.0618
     37 H           2.3109   -0.8976    4.2187 H       1  LIG1        0.0618
     38 H           3.0054   -1.1220    1.9443 H       1  LIG1        0.0618
     39 H           4.9706   -0.1234    1.2841 H       1  LIG1        0.0625
     40 H           7.7753    4.4207    0.9646 H       1  LIG1        0.2108
     41 H           8.7964    1.6269   -0.9571 H       1  LIG1        0.0262
     42 H           8.7323    3.2762   -1.0988 H       1  LIG1        0.0262
     43 H           7.3937    2.3899   -1.2992 H       1  LIG1        0.0262
     44 H          11.9222    3.6689    1.7031 H       1  LIG1        0.0309
     45 H          11.6176    5.0714    1.9594 H       1  LIG1        0.0309
     46 H          11.5789    3.6914    2.9089 H       1  LIG1        0.0309
     47 H           7.3671   -2.6591   -0.0603 H       1  LIG1        0.0279
     48 H           8.0244   -3.7475    0.7988 H       1  LIG1        0.0279
     49 H           7.1150   -3.0182    1.4771 H       1  LIG1        0.0279
@<TRIPOS>BOND
     1    43    25    1
     2    42    25    1
     3    41    25    1
     4    25     7    1
     5    47    28    1
     6    29     6    1
     7     1     6    1
     8     1    17    1
     9     7     3    1
    10     7     6    1
    11     7     8    1
    12    28    48    1
    13    28    16    1
    14    28    49    1
    15     3    40    1
    16     4    26    2
    17     6    18    1
    18    17    16   ar
    19    17    10   ar
    20    16    15   ar
    21    39    24    1
    22     8    26    1
    23     8     9    2
    24    26    27    1
    25    10     9    1
    26    10     5   ar
    27    44    27    1
    28    15    14   ar
    29    15     5   ar
    30     9    30    1
    31    34    14    1
    32    38    23    1
    33    45    27    1
    34    27    46    1
    35    14    13   ar
    36     5    11   ar
    37    24    23   ar
    38    24    19   ar
    39    23    22   ar
    40    18    19    1
    41    18     2    2
    42    13    33    1
    43    13    12   ar
    44    11    31    1
    45    11    12   ar
    46    12    32    1
    47    19    20   ar
    48    22    37    1
    49    22    21   ar
    50    20    21   ar
    51    20    35    1
    52    21    36    1
