@<TRIPOS>MOLECULE
metaboric acid, \b-phase
 12 11 0 0 0
SMALL
GASTEIGER

@<TRIPOS>ATOM
      1 B           5.5066   -0.3807    1.6463 B       1  LIG1        0.0000
      2 B           6.4960    1.8623    1.8513 B       1  LIG1        0.0000
      3 B           4.3646    1.4396    2.8338 B       1  LIG1        0.0000
      4 O           6.6295    0.5315    1.5328 O.3     1  LIG1        0.0000
      5 O           5.3666    2.3189    2.5021 O.3     1  LIG1        0.0000
      6 O           4.4573    0.1175    2.5162 O.3     1  LIG1        0.0000
      7 O           5.8095   -1.7213    2.0351 O.3     1  LIG1        0.0000
      8 O           4.8705   -0.4173    0.2211 O.3     2  HOH2        0.0000
      9 O           3.2853    1.9137    3.5260 O.3     1  LIG1        0.0000
     10 H           4.3090   -1.1798    0.0424 H       0  HOH0        0.0000
     11 H           5.5854   -0.4687   -0.4964 H       0  HOH0        0.0000
     12 H           2.7236    1.1913    3.7209 H       1  LIG1        0.0000
@<TRIPOS>BOND
     1    11     8    1
     2    10     8    1
     3     4     1    1
     4     4     2    1
     5     1     7    1
     6     1     6    1
     7     2     5    1
     8     5     3    1
     9     6     3    1
    10     3     9    1
    11     9    12    1
