@<TRIPOS>MOLECULE
Cyclohex-1-enecarbothioic acid benzyl-(4-methoxy-phenyl)-amide
 47 49 0 0 0
SMALL
GASTEIGER

@<TRIPOS>ATOM
      1 S          12.7773    0.7026   11.9081 S.2     1  LIG1       -0.0348
      2 O           5.4759    2.7748   14.6616 O.3     1  LIG1       -0.4951
      3 N          10.3436    1.7544   12.1634 N.am    1  LIG1       -0.2897
      4 C          11.2412    0.8426   12.5546 C.2     1  LIG1        0.0822
      5 C          10.8202   -0.1218   13.6049 C.2     1  LIG1       -0.0226
      6 C          11.6046   -0.1580   14.8614 C.3     1  LIG1       -0.0257
      7 C          11.2118   -1.2673   15.7565 C.3     1  LIG1       -0.0487
      8 C          10.0651   -1.9881   15.5758 C.3     1  LIG1       -0.0493
      9 C           9.3851   -2.0326   14.3023 C.3     1  LIG1       -0.0341
     10 C           9.7996   -0.9743   13.3625 C.2     1  LIG1       -0.0785
     11 C          10.6058    2.6925   11.0536 C.3     1  LIG1        0.0428
     12 C          10.8419    4.0947   11.5426 C.ar    1  LIG1       -0.0298
     13 C           9.8986    5.0806   11.3810 C.ar    1  LIG1       -0.0571
     14 C          10.1478    6.3692   11.8084 C.ar    1  LIG1       -0.0615
     15 C          11.3304    6.6869   12.3973 C.ar    1  LIG1       -0.0617
     16 C          12.2846    5.7175   12.5823 C.ar    1  LIG1       -0.0615
     17 C          12.0420    4.4256   12.1592 C.ar    1  LIG1       -0.0571
     18 C           9.0794    1.9585   12.8246 C.ar    1  LIG1        0.0349
     19 C           9.0260    2.4226   14.1237 C.ar    1  LIG1       -0.0369
     20 C           7.7999    2.6728   14.7062 C.ar    1  LIG1       -0.0182
     21 C           6.6357    2.4605   13.9940 C.ar    1  LIG1        0.1202
     22 C           6.6890    2.0177   12.7098 C.ar    1  LIG1       -0.0182
     23 C           7.9163    1.7511   12.1294 C.ar    1  LIG1       -0.0369
     24 C           4.2726    2.7666   13.9153 C.3     1  LIG1        0.0788
     25 H          12.5338   -0.2551   14.6212 H       1  LIG1        0.0314
     26 H          11.4838    0.6863   15.3079 H       1  LIG1        0.0314
     27 H          11.9038   -1.9256   15.7353 H       1  LIG1        0.0268
     28 H          11.1433   -0.9035   16.6495 H       1  LIG1        0.0268
     29 H          10.2261   -2.8867   15.8373 H       1  LIG1        0.0268
     30 H           9.3971   -1.6063   16.2009 H       1  LIG1        0.0268
     31 H           9.5135   -2.9147   13.8728 H       1  LIG1        0.0308
     32 H           8.3896   -1.9651   14.4128 H       1  LIG1        0.0308
     33 H           9.3546   -0.8789   12.5036 H       1  LIG1        0.0575
     34 H           9.8225    2.7090   10.4647 H       1  LIG1        0.0517
     35 H          11.3576    2.3996   10.5455 H       1  LIG1        0.0517
     36 H           9.0445    4.8568   10.9367 H       1  LIG1        0.0621
     37 H           9.4863    7.0753   11.6765 H       1  LIG1        0.0618
     38 H          11.4675    7.6118   12.7098 H       1  LIG1        0.0618
     39 H          13.1300    5.9249   13.0224 H       1  LIG1        0.0618
     40 H          12.7263    3.7557   12.2633 H       1  LIG1        0.0621
     41 H           9.8268    2.6004   14.6127 H       1  LIG1        0.0637
     42 H           7.7476    2.9855   15.6183 H       1  LIG1        0.0655
     43 H           5.8719    1.8581   12.2038 H       1  LIG1        0.0655
     44 H           7.9598    1.4170   11.2173 H       1  LIG1        0.0637
     45 H           4.3281    3.3805   13.1691 H       1  LIG1        0.0660
     46 H           4.1366    1.8630   13.5092 H       1  LIG1        0.0660
     47 H           3.5142    2.9591   14.4405 H       1  LIG1        0.0660
@<TRIPOS>BOND
     1    34    11    1
     2    35    11    1
     3    36    13    1
     4    11    12    1
     5    11     3    1
     6    44    23    1
     7    13    12   ar
     8    13    14   ar
     9    12    17   ar
    10    37    14    1
    11    14    15   ar
    12     1     4    2
    13    23    22   ar
    14    23    18   ar
    15    17    40    1
    16    17    16   ar
    17     3     4    1
    18     3    18    1
    19    43    22    1
    20    15    16   ar
    21    15    38    1
    22    33    10    1
    23     4     5    1
    24    16    39    1
    25    22    21   ar
    26    18    19   ar
    27    45    24    1
    28    10     5    2
    29    10     9    1
    30    46    24    1
    31     5     6    1
    32    31     9    1
    33    24    47    1
    34    24     2    1
    35    21     2    1
    36    21    20   ar
    37    19    41    1
    38    19    20   ar
    39     9    32    1
    40     9     8    1
    41    25     6    1
    42    20    42    1
    43     6    26    1
    44     6     7    1
    45     8     7    1
    46     8    29    1
    47     8    30    1
    48    27     7    1
    49     7    28    1
