@<TRIPOS>MOLECULE
2010492.cif
 9 8 0 0 0
SMALL
GASTEIGER

@<TRIPOS>ATOM
      1 CL          3.2874    6.0987    1.6298 Cl      1  LIG1       -0.0878
      2 O           1.0312    4.4729    6.0141 O.2     1  LIG1       -0.1431
      3 N           1.3047    3.4217    5.5148 N.2     1  LIG1       -0.0284
      4 C           1.9802    3.4217    4.2009 C.2     1  LIG1        0.1371
      5 C           2.2786    4.6358    3.6336 C.2     1  LIG1       -0.0162
      6 C           2.9024    4.6070    2.3995 C.2     1  LIG1        0.0250
      7 C           3.2162    3.4217    1.7783 C.3     1  LIG1        0.0112
      8 H           2.0464    5.5104    4.0958 H       1  LIG1        0.0652
      9 H           3.6556    3.4218    0.8622 H       1  LIG1        0.0370
@<TRIPOS>BOND
     1     9     7    1
     2     1     6    1
     3     7     6    1
     4     6     5    2
     5     5     8    1
     6     5     4    1
     7     4     3    2
     8     3     2    1
