@<TRIPOS>MOLECULE
2010494.cif
 28 28 0 0 0
SMALL
GASTEIGER

@<TRIPOS>ATOM
      1 CL          2.4577    0.5312    6.8430 Cl      1  LIG1       -0.0796
      2 CL          2.2853    1.9537    4.0283 Cl      1  LIG1       -0.0819
      3 CL          7.3134    0.5162    2.9936 Cl      1  LIG1       -0.0819
      4 CL          7.4894   -0.9274    5.8051 Cl      1  LIG1       -0.0796
      5 CL         11.0110    5.1389   -3.3364 Cl      2  LIG2       -0.0796
      6 CL         13.2542    3.3413   -1.9797 Cl      2  LIG2       -0.0819
      7 CL         10.3568    3.1565    2.5039 Cl      2  LIG2       -0.0819
      8 CL          8.1092    4.8698    1.1331 Cl      2  LIG2       -0.0796
      9 O           4.6073   -1.9482    7.4045 O.2     1  LIG1       -0.1260
     10 O           5.4899   -0.2194    8.3286 O.2     1  LIG1       -0.1260
     11 O           8.8813    6.9697   -1.4308 O.2     2  LIG2       -0.1260
     12 O           7.8346    5.2747   -2.2237 O.2     2  LIG2       -0.1260
     13 N           5.0231   -0.8198    7.3909 N.pl3   1  LIG1        0.0594
     14 N           8.7388    5.7834   -1.6089 N.pl3   2  LIG2        0.0594
     15 C           4.9559   -0.1048    6.1041 C.ar    1  LIG1        0.1654
     16 C           3.7769    0.5216    5.7613 C.ar    1  LIG1        0.0909
     17 C           3.7193    1.1520    4.5254 C.ar    1  LIG1        0.0629
     18 C           4.8134    1.1461    3.6911 C.ar    1  LIG1       -0.0221
     19 C           5.9797    0.5185    4.0601 C.ar    1  LIG1        0.0629
     20 C           6.0702   -0.1270    5.2905 C.ar    1  LIG1        0.0909
     21 C           9.7469    4.9028   -1.0021 C.ar    2  LIG2        0.1654
     22 C          10.8663    4.5734   -1.7346 C.ar    2  LIG2        0.0909
     23 C          11.8299    3.7826   -1.1142 C.ar    2  LIG2        0.0629
     24 C          11.6718    3.3675    0.1797 C.ar    2  LIG2       -0.0221
     25 C          10.5432    3.6947    0.8868 C.ar    2  LIG2        0.0629
     26 C           9.5514    4.4701    0.2943 C.ar    2  LIG2        0.0909
     27 H           4.7629    1.6096    2.8306 H       1  LIG1        0.0648
     28 H          12.3757    2.8365    0.5989 H       2  LIG2        0.0648
@<TRIPOS>BOND
     1     5    22    1
     2    12    14    2
     3     6    23    1
     4    22    23   ar
     5    22    21   ar
     6    14    11    2
     7    14    21    1
     8    23    24   ar
     9    21    26   ar
    10    24    28    1
    11    24    25   ar
    12    26    25   ar
    13    26     8    1
    14    25     7    1
    15    27    18    1
    16     3    19    1
    17    18    19   ar
    18    18    17   ar
    19     2    17    1
    20    19    20   ar
    21    17    16   ar
    22    20     4    1
    23    20    15   ar
    24    16    15   ar
    25    16     1    1
    26    15    13    1
    27    13     9    2
    28    13    10    2
