@<TRIPOS>MOLECULE
metaboric acid, \g-phase
 4 3 0 0 0
SMALL
GASTEIGER

@<TRIPOS>ATOM
      1 B           6.3707    7.1806    5.1608 B       1  LIG1        0.0000
      2 O           7.3021    8.2235    5.7291 O.3     1  LIG1        0.0000
      3 O           7.1062    5.9301    5.1525 O.3     1  LIG1        0.0000
      4 H           8.2372    7.9219    5.9566 H       1  LIG1        0.0000
@<TRIPOS>BOND
     1     3     1    1
     2     1     2    1
     3     2     4    1
