@<TRIPOS>MOLECULE
bicyclo[2.2.1]hept-2-ene-endo-cis-5,6-dicarboxylic acid
 23 24 0 0 0
SMALL
GASTEIGER

@<TRIPOS>ATOM
      1 C           1.1668    5.8972    3.4169 C.3     1  LIG1        0.0759
      2 H           0.8100    5.7738    2.4909 H       1  LIG1        0.0427
      3 C           0.4410    4.9041    4.2812 C.2     1  LIG1        0.3092
      4 O          -0.3119    5.2322    5.1832 O.2     1  LIG1       -0.2507
      5 O           0.5989    3.6524    3.8902 O.3     1  LIG1       -0.4804
      6 H           0.1010    3.1521    4.3460 H       1  LIG1        0.2951
      7 C           2.7274    5.8233    3.2965 C.3     1  LIG1        0.0759
      8 H           2.9592    5.6459    2.3407 H       1  LIG1        0.0427
      9 C           3.4871    4.8583    4.1495 C.2     1  LIG1        0.3092
     10 O           3.1629    4.4652    5.2495 O.2     1  LIG1       -0.2507
     11 O           4.6298    4.5191    3.5785 O.3     1  LIG1       -0.4804
     12 H           5.0997    4.0898    4.1269 H       1  LIG1        0.2951
     13 C           3.1360    7.3166    3.6361 C.3     1  LIG1       -0.0086
     14 H           4.0588    7.5900    3.3645 H       1  LIG1        0.0351
     15 C           2.7740    7.5589    5.0878 C.2     1  LIG1       -0.0837
     16 H           3.3859    7.6587    5.8070 H       1  LIG1        0.0572
     17 C           1.4579    7.6070    5.1773 C.2     1  LIG1       -0.0837
     18 H           0.9534    7.7548    5.9686 H       1  LIG1        0.0572
     19 C           0.8993    7.3831    3.7904 C.3     1  LIG1       -0.0086
     20 H          -0.0347    7.7075    3.6412 H       1  LIG1        0.0351
     21 C           1.9834    8.0592    2.9426 C.3     1  LIG1       -0.0389
     22 H           2.0212    9.0397    3.0753 H       1  LIG1        0.0277
     23 H           1.9105    7.8442    1.9796 H       1  LIG1        0.0277
@<TRIPOS>BOND
     1    23    21    1
     2     8     7    1
     3     2     1    1
     4    21    22    1
     5    21    13    1
     6    21    19    1
     7     7     1    1
     8     7    13    1
     9     7     9    1
    10    14    13    1
    11     1    19    1
    12     1     3    1
    13    11    12    1
    14    11     9    1
    15    13    15    1
    16    20    19    1
    17    19    17    1
    18     5     3    1
    19     5     6    1
    20     9    10    2
    21     3     4    2
    22    15    17    2
    23    15    16    1
    24    17    18    1
