@<TRIPOS>MOLECULE
1-(aminomethyl)cyclohexaneacetic acid monohydrate
 32 31 0 0 0
SMALL
GASTEIGER

@<TRIPOS>ATOM
      1 O          11.6795    3.6218    8.4411 O.co2   1  LIG1       -0.2464
      2 O          12.4834    5.6936    8.2933 O.co2   1  LIG1       -0.2464
      3 O          13.7104    7.7934    7.0140 O.3     2  HOH2       -0.4105
      4 H          13.2914    7.0589    7.2781 H       0  HOH0        0.2052
      5 H          13.2972    7.9528    6.2165 H       0  HOH0        0.2052
      6 N          12.1304    3.6157    3.5589 N.4     1  LIG1        0.2189
      7 H          11.9300    2.7093    3.8109 H       1  LIG1        0.1994
      8 H          12.9645    3.7875    3.8796 H       1  LIG1        0.1994
      9 H          12.2232    3.6308    2.5431 H       1  LIG1        0.1994
     10 C          10.8250    4.5742    5.5239 C.3     1  LIG1        0.0208
     11 C           9.8892    3.3931    5.8622 C.3     1  LIG1       -0.0420
     12 H          10.3041    2.5711    5.5674 H       1  LIG1        0.0273
     13 H           9.7804    3.3359    6.8657 H       1  LIG1        0.0273
     14 C           8.4787    3.5405    5.2993 C.3     1  LIG1       -0.0524
     15 H           7.9620    2.7646    5.6132 H       1  LIG1        0.0265
     16 H           8.5360    3.4742    4.2538 H       1  LIG1        0.0265
     17 C           7.8432    4.8620    5.7156 C.3     1  LIG1       -0.0530
     18 H           7.7351    4.8749    6.7435 H       1  LIG1        0.0265
     19 H           6.9179    4.9670    5.3841 H       1  LIG1        0.0265
     20 C           8.7315    6.0342    5.3131 C.3     1  LIG1       -0.0524
     21 H           8.7595    6.1374    4.2920 H       1  LIG1        0.0265
     22 H           8.3465    6.9023    5.6132 H       1  LIG1        0.0265
     23 C          10.1244    5.8978    5.9072 C.3     1  LIG1       -0.0420
     24 H          10.0238    5.9347    6.9115 H       1  LIG1        0.0273
     25 H          10.7105    6.6627    5.6667 H       1  LIG1        0.0273
     26 C          11.1328    4.6279    4.0140 C.3     1  LIG1       -0.0291
     27 H          10.2951    4.4805    3.4978 H       1  LIG1        0.0819
     28 H          11.5162    5.5568    3.7880 H       1  LIG1        0.0819
     29 C          12.1809    4.4667    6.2647 C.3     1  LIG1        0.0596
     30 H          12.6165    3.6124    6.1249 H       1  LIG1        0.0386
     31 H          12.7925    5.1606    5.9569 H       1  LIG1        0.0386
     32 C          12.1109    4.6146    7.7806 C.2     1  LIG1        0.3567
@<TRIPOS>BOND
     1     9     6    1
     2    27    26    1
     3     6     7    1
     4     6     8    1
     5     6    26    1
     6    28    26    1
     7    26    10    1
     8    16    14    1
     9    21    20    1
    10    14    15    1
    11    14    17    1
    12    14    11    1
    13    20    22    1
    14    20    17    1
    15    20    23    1
    16    19    17    1
    17    10    11    1
    18    10    23    1
    19    10    29    1
    20    12    11    1
    21    25    23    1
    22    17    18    1
    23    11    13    1
    24    23    24    1
    25    31    29    1
    26    30    29    1
    27     5     3    1
    28    29    32    1
    29     3     4    1
    30    32     2   ar
    31    32     1   ar
