@<TRIPOS>MOLECULE
4-Acetyl-2,4-dihydro-5-methyl-2-phenyl-3H-pyrazole-3-one hydrate
 31 31 0 0 0
SMALL
GASTEIGER

@<TRIPOS>ATOM
      1 C           2.2302    4.9299   17.5760 C.3     1  LIG1       -0.0221
      2 H           2.5262    4.0476   17.8111 H       1  LIG1        0.0293
      3 H           2.9127    5.3700   17.0629 H       1  LIG1        0.0293
      4 H           1.4274    4.8697   17.0542 H       1  LIG1        0.0293
      5 C           1.9586    5.7130   18.8200 C.ar    1  LIG1        0.0458
      6 C           1.5320    7.0173   18.9982 C.ar    1  LIG1        0.1034
      7 C           1.5023    7.2557   20.4092 C.ar    1  LIG1        0.2824
      8 C           1.8340    5.6836   22.3733 C.ar    1  LIG1        0.0671
      9 C           1.3740    4.4274   22.7212 C.ar    1  LIG1       -0.0362
     10 H           1.0958    3.8264   22.0670 H       1  LIG1        0.0639
     11 C           1.3362    4.0792   24.0652 C.ar    1  LIG1       -0.0598
     12 H           1.0409    3.2337   24.3139 H       1  LIG1        0.0618
     13 C           1.7323    4.9743   25.0272 C.ar    1  LIG1       -0.0616
     14 H           1.6960    4.7336   25.9238 H       1  LIG1        0.0618
     15 C           2.1782    6.2139   24.6758 C.ar    1  LIG1       -0.0598
     16 H           2.4401    6.8142   25.3370 H       1  LIG1        0.0618
     17 C           2.2457    6.5885   23.3347 C.ar    1  LIG1       -0.0362
     18 H           2.5610    7.4295   23.0923 H       1  LIG1        0.0639
     19 C           1.1158    7.9274   17.9385 C.2     1  LIG1        0.1671
     20 C           0.5253    9.2460   18.2998 C.3     1  LIG1       -0.0012
     21 H           0.2990    9.7252   17.4992 H       1  LIG1        0.0309
     22 H           1.1633    9.7538   18.8080 H       1  LIG1        0.0309
     23 H          -0.2663    9.1091   18.8255 H       1  LIG1        0.0309
     24 O           1.2360    8.2900   21.0717 O.2     1  LIG1       -0.2651
     25 O           1.1863    7.5920   16.7708 O.2     1  LIG1       -0.2921
     26 O           3.1761    2.7049   20.4919 O.3     2  HOH2       -0.4105
     27 N           2.1203    5.1383   20.0065 N.ar    1  LIG1       -0.2937
     28 N           1.8696    6.0680   20.9968 N.ar    1  LIG1       -0.2189
     29 H           2.5002    4.2575   20.1627 H       1  LIG1        0.1871
     30 H           2.7228    2.0309   20.7146 H       0  HOH0        0.2052
     31 H           3.6353    2.7756   21.1661 H       0  HOH0        0.2052
@<TRIPOS>BOND
     1    25    19    2
     2     4     1    1
     3     3     1    1
     4    21    20    1
     5     1     2    1
     6     1     5    1
     7    19    20    1
     8    19     6    1
     9    20    22    1
    10    20    23    1
    11     5     6   ar
    12     5    27   ar
    13     6     7   ar
    14    27    29    1
    15    27    28   ar
    16     7    28   ar
    17     7    24    2
    18    26    30    1
    19    26    31    1
    20    28     8    1
    21    10     9    1
    22     8     9   ar
    23     8    17   ar
    24     9    11   ar
    25    18    17    1
    26    17    15   ar
    27    11    12    1
    28    11    13   ar
    29    15    13   ar
    30    15    16    1
    31    13    14    1
