@<TRIPOS>MOLECULE
4-(4'-hydroxyphenyl)-amino-6,7-dimethoxyquinazoline
 45 45 0 0 0
SMALL
GASTEIGER

@<TRIPOS>ATOM
      1 CL          3.3065    6.7162    4.3570 Cl      1  LIG1        0.0000
      2 O          -1.0987   -2.9068    8.9860 O.2     2  LIG2       -0.4914
      3 N           0.9138    0.3780   12.9192 N.pl3   2  LIG2       -0.2986
      4 H           0.9593    0.1185   13.8134 H       2  LIG2        0.1502
      5 O          -0.9103   -3.8050   11.3718 O.2     2  LIG2       -0.4917
      6 C           1.3385    1.6012   12.6398 C.2     2  LIG2        0.1986
      7 H           1.6638    2.1109   13.3462 H       2  LIG2        0.1305
      8 O           2.5031    6.9325    7.3062 O.3     2  LIG2       -0.5068
      9 H           2.6634    6.8778    6.5037 H       2  LIG2        0.2921
     10 N           1.3378    2.1498   11.4577 N.2     2  LIG2       -0.0336
     11 O           6.1824    5.7874    4.4749 O.3     2  LIG2       -0.3982
     12 H           5.4050    6.0427    4.5351 H       2  LIG2        0.2090
     13 N           0.8177    1.9829    9.2256 N.pl3   2  LIG2       -0.2002
     14 H           0.4313    1.5624    8.5609 H       2  LIG2        0.2985
     15 C           0.8270    1.4234   10.4325 C.2     2  LIG2        0.3233
     16 C          -0.1641   -0.7575    9.5979 C.2     2  LIG2       -0.0030
     17 H          -0.2252   -0.4353    8.7269 H       2  LIG2        0.0661
     18 C          -0.5735   -2.0322    9.8800 C.2     2  LIG2        0.1618
     19 C          -0.4899   -2.5333   11.2146 C.2     2  LIG2        0.1600
     20 C          -0.0017   -1.7359   12.2135 C.2     2  LIG2       -0.0081
     21 H           0.0557   -2.0581   13.0849 H       2  LIG2        0.0635
     22 C           0.4097   -0.4342   11.9172 C.3     2  LIG2        0.1190
     23 C           0.3523    0.0754   10.6200 C.2     2  LIG2        0.0769
     24 C           1.3135    3.2660    8.8230 C.ar    2  LIG2        0.1189
     25 C           1.8579    3.3371    7.5498 C.ar    2  LIG2       -0.0136
     26 H           1.9473    2.5634    7.0418 H       2  LIG2        0.0659
     27 C           2.2680    4.5514    7.0325 C.ar    2  LIG2       -0.0164
     28 H           2.6260    4.5967    6.1760 H       2  LIG2        0.0655
     29 C           2.1457    5.6958    7.7887 C.ar    2  LIG2        0.1171
     30 C           1.6330    5.6236    9.0637 C.ar    2  LIG2       -0.0164
     31 H           1.5710    6.3962    9.5773 H       2  LIG2        0.0655
     32 C           1.2114    4.4200    9.5890 C.ar    2  LIG2       -0.0136
     33 H           0.8603    4.3812   10.4497 H       2  LIG2        0.0659
     34 C          -1.0877   -2.5322    7.6091 C.3     2  LIG2        0.0790
     35 H          -1.5434   -3.2002    7.0927 H       2  LIG2        0.0660
     36 H          -0.1802   -2.4557    7.3053 H       2  LIG2        0.0660
     37 H          -1.5327   -1.6874    7.5046 H       2  LIG2        0.0660
     38 C          -0.7288   -4.4060   12.6668 C.3     2  LIG2        0.0789
     39 H          -0.9917   -5.3294   12.6309 H       2  LIG2        0.0660
     40 H          -1.2695   -3.9448   13.3130 H       2  LIG2        0.0660
     41 H           0.1945   -4.3467   12.9210 H       2  LIG2        0.0660
     42 C           6.4365    4.8230    5.4623 C.3     2  LIG2        0.0330
     43 H           7.3848    4.7141    5.5670 H       2  LIG2        0.0521
     44 H           6.0465    3.9857    5.1994 H       2  LIG2        0.0521
     45 H           6.0527    5.1074    6.2955 H       2  LIG2        0.0521
@<TRIPOS>BOND
     1    11    12    1
     2    11    42    1
     3    44    42    1
     4    42    43    1
     5    42    45    1
     6    28    27    1
     7     9     8    1
     8    27    25   ar
     9    27    29   ar
    10    26    25    1
    11    35    34    1
    12    36    34    1
    13     8    29    1
    14    37    34    1
    15    25    24   ar
    16    34     2    1
    17    29    30   ar
    18    14    13    1
    19    17    16    1
    20    24    13    1
    21    24    32   ar
    22     2    18    1
    23    30    31    1
    24    30    32   ar
    25    13    15    1
    26    32    33    1
    27    16    18    2
    28    16    23    1
    29    18    19    1
    30    15    23    2
    31    15    10    1
    32    23    22    1
    33    19     5    1
    34    19    20    2
    35     5    38    1
    36    10     6    2
    37    22    20    1
    38    22     3    1
    39    20    21    1
    40    39    38    1
    41     6     3    1
    42     6     7    1
    43    38    41    1
    44    38    40    1
    45     3     4    1
