@<TRIPOS>MOLECULE
1,2,dibenzoylhydrazine
 15 15 0 0 0
SMALL
GASTEIGER

@<TRIPOS>ATOM
      1 O           0.8012    8.5577    0.9120 O.2     1  LIG1       -0.2687
      2 N          -0.2178    9.8242    2.4716 N.am    1  LIG1       -0.2301
      3 H          -0.1535   10.2783    3.1989 H       1  LIG1        0.1731
      4 C           2.0185    8.9962    2.9148 C.ar    1  LIG1        0.0382
      5 C           2.3115    9.9163    3.9014 C.ar    1  LIG1       -0.0496
      6 H           1.7515   10.6452    4.0395 H       1  LIG1        0.0625
      7 C           3.4484    9.7499    4.6889 C.ar    1  LIG1       -0.0610
      8 H           3.6501   10.3727    5.3492 H       1  LIG1        0.0618
      9 C           4.2758    8.6629    4.4935 C.ar    1  LIG1       -0.0617
     10 H           5.0390    8.5607    5.0148 H       1  LIG1        0.0618
     11 C           3.9750    7.7374    3.5341 C.ar    1  LIG1       -0.0610
     12 H           4.5226    6.9949    3.4187 H       1  LIG1        0.0618
     13 C           2.8565    7.9019    2.7355 C.ar    1  LIG1       -0.0496
     14 H           2.6648    7.2762    2.0745 H       1  LIG1        0.0625
     15 C           0.8288    9.0944    2.0177 C.2     1  LIG1        0.2601
@<TRIPOS>BOND
     1     1    15    2
     2    15     2   am
     3    15     4    1
     4    14    13    1
     5     2     3    1
     6    13     4   ar
     7    13    11   ar
     8     4     5   ar
     9    12    11    1
    10    11     9   ar
    11     5     6    1
    12     5     7   ar
    13     9     7   ar
    14     9    10    1
    15     7     8    1
