@<TRIPOS>MOLECULE
1,2-Diphenylbut-3-yn-2-ol
 62 64 0 0 0
SMALL
GASTEIGER

@<TRIPOS>ATOM
      1 C           4.3295    9.3178    5.4423 C.ar    1  LIG1       -0.0584
      2 H           4.9779   10.0233    5.8561 H       1  LIG1        0.0620
      3 C           3.2195    8.9248    6.1906 C.ar    1  LIG1       -0.0615
      4 H           3.0792    9.3507    7.1054 H       1  LIG1        0.0618
      5 C           2.3419    7.9887    5.6961 C.ar    1  LIG1       -0.0617
      6 H           1.5257    7.7794    6.2270 H       1  LIG1        0.0618
      7 O           8.1452    9.0892    2.9934 O.3     1  LIG1       -0.3721
      8 H           8.8587    8.7218    3.1883 H       1  LIG1        0.2118
      9 C           2.5733    7.4250    4.4611 C.ar    1  LIG1       -0.0615
     10 H           1.9146    6.7378    4.1448 H       1  LIG1        0.0618
     11 C           3.6933    7.7923    3.7043 C.ar    1  LIG1       -0.0584
     12 H           3.8153    7.4342    2.8435 H       1  LIG1        0.0620
     13 C           4.5855    8.7462    4.1930 C.ar    1  LIG1       -0.0434
     14 C           5.8007    9.1567    3.3907 C.3     1  LIG1        0.0170
     15 H           5.6644    8.8885    2.4661 H       1  LIG1        0.0354
     16 H           5.9164   10.1126    3.4681 H       1  LIG1        0.0354
     17 C           7.1300    8.4964    3.8510 C.3     1  LIG1        0.1554
     18 C           7.1231    6.9745    3.6619 C.ar    1  LIG1       -0.0038
     19 C           7.3223    6.0941    4.7272 C.ar    1  LIG1       -0.0549
     20 H           7.4203    6.4521    5.5893 H       1  LIG1        0.0621
     21 C           7.3536    4.7180    4.5118 C.ar    1  LIG1       -0.0614
     22 H           7.5115    4.1149    5.2315 H       1  LIG1        0.0618
     23 C           7.1782    4.2042    3.2319 C.ar    1  LIG1       -0.0617
     24 H           7.2020    3.2141    3.0907 H       1  LIG1        0.0618
     25 C           6.9812    5.0718    2.1681 C.ar    1  LIG1       -0.0614
     26 H           6.8489    4.7299    1.2949 H       1  LIG1        0.0618
     27 C           6.9554    6.4465    2.3769 C.ar    1  LIG1       -0.0549
     28 H           6.8390    7.0175    1.6527 H       1  LIG1        0.0621
     29 C           7.4306    8.8742    5.2513 C.1     1  LIG1       -0.0658
     30 C           7.7012    9.2099    6.3526 C.1     1  LIG1       -0.1160
     31 H           7.9083    9.4341    7.2291 H       1  LIG1        0.1229
     32 C           6.0477   -0.0456   -1.5402 C.ar    2  LIG2       -0.0584
     33 H           5.4819   -0.5714   -2.1407 H       2  LIG2        0.0620
     34 C           7.3203    0.3210   -1.9813 C.ar    2  LIG2       -0.0615
     35 H           7.5969   -0.0020   -2.8695 H       2  LIG2        0.0618
     36 C           8.1619    1.0515   -1.1537 C.ar    2  LIG2       -0.0617
     37 H           9.0115    1.2817   -1.4575 H       2  LIG2        0.0618
     38 O           1.8916    0.3847    0.4132 O.3     2  LIG2       -0.3721
     39 H           1.3055    0.9285    0.2342 H       2  LIG2        0.2118
     40 C           7.7254    1.4438    0.0930 C.ar    2  LIG2       -0.0615
     41 H           8.3309    1.9701    0.6507 H       2  LIG2        0.0618
     42 C           6.4457    1.0964    0.5271 C.ar    2  LIG2       -0.0584
     43 H           6.0751    1.3233    1.3990 H       2  LIG2        0.0620
     44 C           5.5928    0.3371   -0.2791 C.ar    2  LIG2       -0.0434
     45 C           4.2258   -0.0573    0.2258 C.3     2  LIG2        0.0170
     46 H           4.0514   -0.9861    0.0455 H       2  LIG2        0.0354
     47 H           4.1724    0.0119    1.2038 H       2  LIG2        0.0354
     48 C           3.0568    0.7938   -0.3496 C.3     2  LIG2        0.1554
     49 C           3.3352    2.2854   -0.1400 C.ar    2  LIG2       -0.0038
     50 C           3.7383    3.1056   -1.1914 C.ar    2  LIG2       -0.0549
     51 H           3.8133    2.7102   -2.0757 H       2  LIG2        0.0621
     52 C           4.0300    4.4512   -0.9532 C.ar    2  LIG2       -0.0614
     53 H           4.3232    4.9581   -1.6722 H       2  LIG2        0.0618
     54 C           3.9347    4.9742    0.3214 C.ar    2  LIG2       -0.0617
     55 H           4.0851    5.8926    0.5010 H       2  LIG2        0.0618
     56 C           3.5435    4.1623    1.3742 C.ar    2  LIG2       -0.0614
     57 H           3.4522    4.5117    2.3164 H       2  LIG2        0.0618
     58 C           3.2441    2.8151    1.1537 C.ar    2  LIG2       -0.0549
     59 H           2.9582    2.2320    1.9130 H       2  LIG2        0.0621
     60 C           2.7933    0.4585   -1.7726 C.1     2  LIG2       -0.0658
     61 C           2.4687    0.1300   -2.8688 C.1     2  LIG2       -0.1160
     62 H           2.2181   -0.0516   -3.7089 H       2  LIG2        0.1229
@<TRIPOS>BOND
     1    62    61    1
     2    35    34    1
     3    61    60    3
     4    33    32    1
     5    51    50    1
     6    34    32   ar
     7    34    36   ar
     8    60    48    1
     9    53    52    1
    10    32    44   ar
    11    37    36    1
    12    50    52   ar
    13    50    49   ar
    14    36    40   ar
    15    52    54   ar
    16    48    49    1
    17    48    45    1
    18    48    38    1
    19    44    45    1
    20    44    42   ar
    21    49    58   ar
    22    46    45    1
    23    40    42   ar
    24    40    41    1
    25    45    47    1
    26    39    38    1
    27    54    55    1
    28    54    56   ar
    29    42    43    1
    30    58    56   ar
    31    58    59    1
    32    26    25    1
    33    56    57    1
    34    28    27    1
    35    25    27   ar
    36    25    23   ar
    37    27    18   ar
    38    15    14    1
    39    12    11    1
    40     7     8    1
    41     7    17    1
    42    24    23    1
    43    23    21   ar
    44    14    16    1
    45    14    17    1
    46    14    13    1
    47    18    17    1
    48    18    19   ar
    49    11    13   ar
    50    11     9   ar
    51    17    29    1
    52    10     9    1
    53    13     1   ar
    54     9     5   ar
    55    21    19   ar
    56    21    22    1
    57    19    20    1
    58    29    30    3
    59     1     2    1
    60     1     3   ar
    61     5     3   ar
    62     5     6    1
    63     3     4    1
    64    30    31    1
