@<TRIPOS>MOLECULE
N-(4-Methylphenyl)-N-2-propynyl-N-5-nitro-2-furfurylamine
 34 35 0 0 0
SMALL
GASTEIGER

@<TRIPOS>ATOM
      1 O           7.8215    9.7916    6.5012 O.2     1  LIG1       -0.4374
      2 O           8.5563    6.6062    5.3355 O.2     1  LIG1       -0.1231
      3 O           9.1948    7.6272    7.1412 O.2     1  LIG1       -0.1231
      4 N           5.4490   12.5441    6.6005 N.pl3   1  LIG1       -0.3115
      5 N           8.5614    7.5741    6.0989 N.pl3   1  LIG1        0.0926
      6 C           6.7775   11.9845    6.6690 C.3     1  LIG1        0.0711
      7 H           7.0211   11.8675    7.6004 H       1  LIG1        0.0544
      8 H           7.4031   12.6132    6.2770 H       1  LIG1        0.0544
      9 C           6.9084   10.6680    5.9649 C.ar    1  LIG1        0.1250
     10 C           6.2964   10.1017    4.8959 C.ar    1  LIG1       -0.0167
     11 H           5.6367   10.4899    4.3673 H       1  LIG1        0.0653
     12 C           6.8498    8.8080    4.7347 C.ar    1  LIG1        0.0083
     13 H           6.6312    8.1763    4.0872 H       1  LIG1        0.0673
     14 C           7.7561    8.6888    5.7157 C.ar    1  LIG1        0.2799
     15 C           4.3857   11.9190    7.2532 C.ar    1  LIG1        0.0308
     16 C           4.6136   10.8665    8.1505 C.ar    1  LIG1       -0.0404
     17 H           5.4774   10.5433    8.2722 H       1  LIG1        0.0636
     18 C           3.5669   10.3051    8.8556 C.ar    1  LIG1       -0.0571
     19 H           3.7479    9.6210    9.4587 H       1  LIG1        0.0621
     20 C           2.2530   10.7277    8.6940 C.ar    1  LIG1       -0.0503
     21 C           2.0263   11.7462    7.7691 C.ar    1  LIG1       -0.0571
     22 H           1.1560   12.0430    7.6283 H       1  LIG1        0.0621
     23 C           3.0603   12.3298    7.0540 C.ar    1  LIG1       -0.0404
     24 H           2.8736   13.0001    6.4366 H       1  LIG1        0.0636
     25 C           1.1066   10.1423    9.4979 C.3     1  LIG1       -0.0397
     26 H           0.9765   10.6620   10.2944 H       1  LIG1        0.0278
     27 H           1.3142    9.2357    9.7370 H       1  LIG1        0.0278
     28 H           0.3051   10.1586    8.9710 H       1  LIG1        0.0278
     29 C           5.2056   13.6529    5.6848 C.3     1  LIG1        0.0741
     30 H           6.0234   14.1649    5.5860 H       1  LIG1        0.0600
     31 H           4.5348   14.2379    6.0702 H       1  LIG1        0.0600
     32 C           4.7507   13.2159    4.3530 C.1     1  LIG1       -0.0865
     33 C           4.3937   12.8112    3.2999 C.1     1  LIG1       -0.1176
     34 H           4.1268   12.4399    2.3904 H       1  LIG1        0.1228
@<TRIPOS>BOND
     1    34    33    1
     2    33    32    3
     3    13    12    1
     4    32    29    1
     5    11    10    1
     6    12    10   ar
     7    12    14   ar
     8    10     9   ar
     9     2     5    2
    10    30    29    1
    11    29    31    1
    12    29     4    1
    13    14     5    1
    14    14     1   ar
    15     9     1   ar
    16     9     6    1
    17     5     3    2
    18     8     6    1
    19    24    23    1
    20     4     6    1
    21     4    15    1
    22     6     7    1
    23    23    15   ar
    24    23    21   ar
    25    15    16   ar
    26    22    21    1
    27    21    20   ar
    28    16    17    1
    29    16    18   ar
    30    20    18   ar
    31    20    25    1
    32    18    19    1
    33    28    25    1
    34    25    27    1
    35    25    26    1
