@<TRIPOS>MOLECULE
cis-4-cyclohexene-1,2-dicarboxylic acid
 22 22 0 0 0
SMALL
GASTEIGER

@<TRIPOS>ATOM
      1 C           5.0796    6.1054    1.6172 C.3     1  LIG1        0.0728
      2 H           5.2380    6.7487    0.8688 H       1  LIG1        0.0424
      3 C           4.8562    4.7612    0.9656 C.2     1  LIG1        0.3089
      4 O           5.7872    4.0257    0.6619 O.2     1  LIG1       -0.2507
      5 O           3.5979    4.4804    0.7006 O.3     1  LIG1       -0.4804
      6 H           3.5500    3.7216    0.3438 H       1  LIG1        0.2951
      7 C           6.3649    6.1144    2.4582 C.3     1  LIG1        0.0728
      8 H           7.1135    5.7961    1.8776 H       1  LIG1        0.0424
      9 C           6.2546    5.1678    3.6337 C.2     1  LIG1        0.3089
     10 O           5.3099    4.4028    3.7993 O.2     1  LIG1       -0.2507
     11 O           7.2945    5.2168    4.4470 O.3     1  LIG1       -0.4804
     12 H           7.1873    4.6648    5.0708 H       1  LIG1        0.2951
     13 C           6.6953    7.5534    2.9111 C.3     1  LIG1       -0.0210
     14 H           7.3716    7.5203    3.6327 H       1  LIG1        0.0315
     15 H           7.0865    8.0523    2.1504 H       1  LIG1        0.0315
     16 C           5.4885    8.2769    3.4032 C.2     1  LIG1       -0.0871
     17 H           5.6161    9.0743    3.9024 H       1  LIG1        0.0569
     18 C           4.2499    7.8706    3.1818 C.2     1  LIG1       -0.0871
     19 H           3.5464    8.3899    3.5524 H       1  LIG1        0.0569
     20 C           3.8665    6.6510    2.3902 C.3     1  LIG1       -0.0210
     21 H           3.1452    6.8827    1.7541 H       1  LIG1        0.0315
     22 H           3.5232    5.9531    3.0038 H       1  LIG1        0.0315
@<TRIPOS>BOND
     1     6     5    1
     2     4     3    2
     3     5     3    1
     4     2     1    1
     5     3     1    1
     6     1    20    1
     7     1     7    1
     8    21    20    1
     9     8     7    1
    10    15    13    1
    11    20    22    1
    12    20    18    1
    13     7    13    1
    14     7     9    1
    15    13    16    1
    16    13    14    1
    17    18    16    2
    18    18    19    1
    19    16    17    1
    20     9    10    2
    21     9    11    1
    22    11    12    1
