@<TRIPOS>MOLECULE
6,7-dicyano-2,3-di(2-pyridyl) pyrazine
 60 64 0 0 0
SMALL
GASTEIGER

@<TRIPOS>ATOM
      1 N          10.7262    2.3357   11.6192 N.1     1  LIG1       -0.1892
      2 N           7.2488    3.4902    9.9606 N.1     1  LIG1       -0.1892
      3 N          11.7294    2.9101    8.3673 N.ar    1  LIG1       -0.2298
      4 N           9.2421    3.3266    7.2139 N.ar    1  LIG1       -0.2298
      5 N          12.8058    4.2574    5.3152 N.ar    1  LIG1       -0.2534
      6 N          10.7755    2.1551    4.3642 N.ar    1  LIG1       -0.2534
      7 C          10.7007    2.5904   10.5056 C.1     1  LIG1        0.1220
      8 C          10.6072    2.9012    9.0989 C.ar    1  LIG1        0.1765
      9 C           8.2006    3.3763    9.3431 C.1     1  LIG1        0.1220
     10 C           9.3884    3.2062    8.5419 C.ar    1  LIG1        0.1765
     11 C          11.6091    3.1314    7.0508 C.ar    1  LIG1        0.1181
     12 C          10.3285    3.2111    6.4501 C.ar    1  LIG1        0.1181
     13 C          12.8597    3.3250    6.2930 C.ar    1  LIG1        0.0913
     14 C          14.0091    2.6083    6.6029 C.ar    1  LIG1       -0.0341
     15 C          15.1366    2.8434    5.8365 C.ar    1  LIG1       -0.0583
     16 C          15.0958    3.7692    4.8365 C.ar    1  LIG1       -0.0436
     17 C          13.9214    4.4567    4.6030 C.ar    1  LIG1        0.0283
     18 C          10.0703    3.0940    4.9950 C.ar    1  LIG1        0.0913
     19 C           9.0764    3.8441    4.3946 C.ar    1  LIG1       -0.0341
     20 C           8.8226    3.6545    3.0569 C.ar    1  LIG1       -0.0583
     21 C           9.5382    2.7002    2.3819 C.ar    1  LIG1       -0.0436
     22 C          10.4933    1.9892    3.0618 C.ar    1  LIG1        0.0283
     23 H          14.0200    1.9932    7.3012 H       1  LIG1        0.0639
     24 H          15.9202    2.3715    6.0038 H       1  LIG1        0.0619
     25 H          15.8505    3.9360    4.3200 H       1  LIG1        0.0633
     26 H          13.9044    5.0856    3.9171 H       1  LIG1        0.0830
     27 H           8.5881    4.4648    4.8861 H       1  LIG1        0.0639
     28 H           8.1802    4.1638    2.6197 H       1  LIG1        0.0619
     29 H           9.3801    2.5383    1.4793 H       1  LIG1        0.0633
     30 H          10.9777    1.3497    2.5908 H       1  LIG1        0.0830
     31 N           5.5383    4.0735    4.1898 N.1     2  LIG2       -0.1892
     32 N           2.1942    5.5973    2.6259 N.1     2  LIG2       -0.1892
     33 N           3.7201    4.6283    7.0225 N.ar    2  LIG2       -0.2298
     34 N           1.2480    5.2637    5.9238 N.ar    2  LIG2       -0.2298
     35 N           2.2615    6.0309    9.8730 N.ar    2  LIG2       -0.2534
     36 N           0.1232    4.1101    9.0177 N.ar    2  LIG2       -0.2534
     37 C           4.6637    4.3428    4.8634 C.1     2  LIG2        0.1220
     38 C           3.5413    4.7032    5.7015 C.ar    2  LIG2        0.1765
     39 C           2.2486    5.3996    3.7477 C.1     2  LIG2        0.1220
     40 C           2.3528    5.1262    5.1673 C.ar    2  LIG2        0.1765
     41 C           2.6670    4.8887    7.8012 C.ar    2  LIG2        0.1181
     42 C           1.3787    5.0685    7.2333 C.ar    2  LIG2        0.1181
     43 C           2.9437    5.0449    9.2503 C.ar    2  LIG2        0.0913
     44 C           3.8999    4.2883    9.8885 C.ar    2  LIG2       -0.0341
     45 C           4.1368    4.4917   11.2341 C.ar    2  LIG2       -0.0583
     46 C           3.4383    5.4793   11.8776 C.ar    2  LIG2       -0.0436
     47 C           2.5171    6.2213   11.1626 C.ar    2  LIG2        0.0283
     48 C           0.1210    5.0018    8.0264 C.ar    2  LIG2        0.0913
     49 C          -0.9644    5.7795    7.7002 C.ar    2  LIG2       -0.0341
     50 C          -2.1007    5.6559    8.4541 C.ar    2  LIG2       -0.0583
     51 C          -2.1296    4.7691    9.4933 C.ar    2  LIG2       -0.0436
     52 C          -1.0011    4.0149    9.7412 C.ar    2  LIG2        0.0283
     53 H           4.3816    3.6456    9.4189 H       2  LIG2        0.0639
     54 H           4.7555    3.9710   11.6915 H       2  LIG2        0.0619
     55 H           3.5811    5.6477   12.7803 H       2  LIG2        0.0633
     56 H           2.0514    6.8909   11.6089 H       2  LIG2        0.0830
     57 H          -0.9280    6.3742    6.9851 H       2  LIG2        0.0639
     58 H          -2.8485    6.1725    8.2599 H       2  LIG2        0.0619
     59 H          -2.8910    4.6772   10.0201 H       2  LIG2        0.0633
     60 H          -1.0215    3.4088   10.4478 H       2  LIG2        0.0830
@<TRIPOS>BOND
     1    29    21    1
     2    21    20   ar
     3    21    22   ar
     4    30    22    1
     5    28    20    1
     6    32    39    3
     7    20    19   ar
     8    22     6   ar
     9    39    40    1
    10    26    17    1
    11    31    37    3
    12    25    16    1
    13     6    18   ar
    14    19    27    1
    15    19    18   ar
    16    17    16   ar
    17    17     5   ar
    18    16    15   ar
    19    37    38    1
    20    18    12    1
    21    40    38   ar
    22    40    34   ar
    23     5    13   ar
    24    38    33   ar
    25    15    24    1
    26    15    14   ar
    27    34    42   ar
    28    13    14   ar
    29    13    11    1
    30    12    11   ar
    31    12     4   ar
    32    14    23    1
    33    57    49    1
    34    33    41   ar
    35    11     3   ar
    36     4    10   ar
    37    42    41   ar
    38    42    48    1
    39    49    48   ar
    40    49    50   ar
    41    41    43    1
    42    48    36   ar
    43    58    50    1
    44     3     8   ar
    45    50    51   ar
    46    10     8   ar
    47    10     9    1
    48    36    52   ar
    49     8     7    1
    50    43    35   ar
    51    43    44   ar
    52     9     2    3
    53    53    44    1
    54    51    52   ar
    55    51    59    1
    56    52    60    1
    57    35    47   ar
    58    44    45   ar
    59     7     1    3
    60    47    56    1
    61    47    46   ar
    62    45    54    1
    63    45    46   ar
    64    46    55    1
