@<TRIPOS>MOLECULE
3-Methyl-4-(dibromomethyl)methoxybenzene
 22 22 0 0 0
SMALL
GASTEIGER

@<TRIPOS>ATOM
      1 BR          8.6887    6.0591    5.9361 Br      1  LIG1       -0.0707
      2 BR          5.5124    6.0085    5.8653 Br      1  LIG1       -0.0707
      3 O           6.6816   12.3554    7.1640 O.3     1  LIG1       -0.4951
      4 C           6.8334   11.0465    6.8060 C.ar    1  LIG1        0.1204
      5 C           6.4358   10.7523    5.4942 C.ar    1  LIG1       -0.0167
      6 H           6.1032   11.4456    4.9362 H       1  LIG1        0.0657
      7 C           6.5255    9.4375    4.9987 C.ar    1  LIG1       -0.0420
      8 C           7.0248    8.4380    5.8299 C.ar    1  LIG1       -0.0204
      9 C           7.4064    8.7502    7.1451 C.ar    1  LIG1       -0.0530
     10 H           7.7388    8.0635    7.7104 H       1  LIG1        0.0622
     11 C           7.3065   10.0432    7.6306 C.ar    1  LIG1       -0.0196
     12 H           7.5611   10.2387    8.5244 H       1  LIG1        0.0654
     13 C           6.9507   12.6859    8.5384 C.3     1  LIG1        0.0788
     14 H           6.8596   13.6536    8.6651 H       1  LIG1        0.0660
     15 H           7.8631   12.4109    8.7680 H       1  LIG1        0.0660
     16 H           6.3132   12.2198    9.1177 H       1  LIG1        0.0660
     17 C           6.0531    9.1605    3.5939 C.3     1  LIG1       -0.0393
     18 H           6.8130    8.8758    3.0442 H       1  LIG1        0.0278
     19 H           5.6622    9.9747    3.2137 H       1  LIG1        0.0278
     20 H           5.3775    8.4501    3.6096 H       1  LIG1        0.0278
     21 C           7.1185    7.0394    5.3296 C.3     1  LIG1        0.0951
     22 H           7.1434    7.0719    4.3305 H       1  LIG1        0.0586
@<TRIPOS>BOND
     1    18    17    1
     2    19    17    1
     3    17    20    1
     4    17     7    1
     5    22    21    1
     6     6     5    1
     7     7     5   ar
     8     7     8   ar
     9    21     8    1
    10    21     2    1
    11    21     1    1
    12     5     4   ar
    13     8     9   ar
    14     4     3    1
    15     4    11   ar
    16     9    11   ar
    17     9    10    1
    18     3    13    1
    19    11    12    1
    20    13    14    1
    21    13    15    1
    22    13    16    1
