@<TRIPOS>MOLECULE
6-Dimethoxymethyl-1-methoxycarbonylbicyclo[3.1.0]hex-2-ene-2-carboxylic acid
 34 35 0 0 0
SMALL
GASTEIGER

@<TRIPOS>ATOM
      1 C           5.1336    9.8881    1.9970 C.3     1  LIG1        0.1100
      2 C           5.0408    8.9995    0.7820 C.2     1  LIG1        0.0500
      3 C           3.8471    9.1188    0.1580 C.2     1  LIG1       -0.0726
      4 H           3.4160    8.6332   -0.6815 H       1  LIG1        0.0577
      5 C           2.9578   10.1512    0.8076 C.3     1  LIG1       -0.0293
      6 H           2.1163    9.7676    1.0662 H       1  LIG1        0.0311
      7 H           2.7964   10.8884    0.2153 H       1  LIG1        0.0311
      8 C           3.7615   10.6089    2.0483 C.3     1  LIG1       -0.0083
      9 H           3.7528   11.5399    2.2802 H       1  LIG1        0.0322
     10 C           4.1333    9.6079    3.1215 C.3     1  LIG1        0.0348
     11 H           4.3727   10.0016    3.9642 H       1  LIG1        0.0367
     12 C           6.4360   10.6219    2.2330 C.2     1  LIG1        0.3184
     13 C           7.9498   11.4298    3.8878 C.3     1  LIG1        0.0817
     14 H           8.0377   11.4787    4.8431 H       1  LIG1        0.0661
     15 H           8.6920   10.9428    3.5222 H       1  LIG1        0.0661
     16 H           7.9376   12.3180    3.5222 H       1  LIG1        0.0661
     17 C           6.1201    8.0374    0.4423 C.2     1  LIG1        0.3336
     18 C           3.4138    8.2746    3.2683 C.3     1  LIG1        0.1628
     19 H           3.0210    8.0483    2.4216 H       1  LIG1        0.0912
     20 C           4.9827    7.4321    4.8852 C.3     1  LIG1        0.0394
     21 H           5.5215    6.6650    5.0928 H       1  LIG1        0.0525
     22 H           5.5483    8.2006    4.7769 H       1  LIG1        0.0525
     23 H           4.3618    7.5899    5.5998 H       1  LIG1        0.0525
     24 C           1.3724    7.5001    4.2533 C.3     1  LIG1        0.0394
     25 H           0.7110    7.7300    4.9094 H       1  LIG1        0.0525
     26 H           0.9567    7.4294    3.3910 H       1  LIG1        0.0525
     27 H           1.7752    6.6609    4.4852 H       1  LIG1        0.0525
     28 O           7.1508   11.0500    1.3528 O.2     1  LIG1       -0.2498
     29 O           6.7141   10.7586    3.5436 O.3     1  LIG1       -0.4673
     30 O           7.1347    7.9425    1.1287 O.2     1  LIG1       -0.2455
     31 O           5.8982    7.3065   -0.6384 O.3     1  LIG1       -0.4773
     32 H           6.5685    6.6187   -0.6598 H       1  LIG1        0.2954
     33 O           4.2646    7.2066    3.6662 O.3     1  LIG1       -0.3542
     34 O           2.3774    8.5177    4.2020 O.3     1  LIG1       -0.3542
@<TRIPOS>BOND
     1     4     3    1
     2    32    31    1
     3    31    17    1
     4     3     2    2
     5     3     5    1
     6     7     5    1
     7    17     2    1
     8    17    30    2
     9     2     1    1
    10     5     6    1
    11     5     8    1
    12    28    12    2
    13     1     8    1
    14     1    12    1
    15     1    10    1
    16     8     9    1
    17     8    10    1
    18    12    29    1
    19    19    18    1
    20    10    18    1
    21    10    11    1
    22    18    33    1
    23    18    34    1
    24    26    24    1
    25    16    13    1
    26    15    13    1
    27    29    13    1
    28    33    20    1
    29    13    14    1
    30    34    24    1
    31    24    27    1
    32    24    25    1
    33    22    20    1
    34    20    21    1
    35    20    23    1
