@<TRIPOS>MOLECULE
(R)-(+)-2,2'-bis(diphenylphosphinoyl)-1,1'-binaphthyl
 80 87 0 0 0
SMALL
GASTEIGER

@<TRIPOS>ATOM
      1 P           3.2846    2.1404    0.9405 P.3     1  LIG1        0.1721
      2 P           3.1345    4.8807    4.3209 P.3     1  LIG1        0.1721
      3 O           3.0472    1.5297    2.2704 O.2     1  LIG1       -0.3065
      4 O           2.8611    5.4508    2.9796 O.2     1  LIG1       -0.3065
      5 C           5.1376    3.9067    2.0849 C.ar    1  LIG1        0.0021
      6 C           4.3762    3.5846    0.9664 C.ar    1  LIG1        0.0283
      7 C           4.4517    4.4027   -0.1915 C.ar    1  LIG1       -0.0495
      8 H           3.9549    4.1627   -0.9640 H       1  LIG1        0.0625
      9 C           5.2238    5.5277   -0.2181 C.ar    1  LIG1       -0.0533
     10 H           5.2292    6.0788   -0.9926 H       1  LIG1        0.0624
     11 C           6.0162    5.8803    0.8999 C.ar    1  LIG1       -0.0173
     12 C           6.8308    7.0446    0.9038 C.ar    1  LIG1       -0.0540
     13 H           6.8181    7.6303    0.1549 H       1  LIG1        0.0624
     14 C           7.6364    7.3333    1.9784 C.ar    1  LIG1       -0.0612
     15 H           8.1772    8.1146    1.9705 H       1  LIG1        0.0618
     16 C           7.6613    6.4727    3.0924 C.ar    1  LIG1       -0.0611
     17 H           8.2423    6.6599    3.8206 H       1  LIG1        0.0618
     18 C           6.8590    5.3746    3.1348 C.ar    1  LIG1       -0.0534
     19 H           6.8721    4.8178    3.9045 H       1  LIG1        0.0624
     20 C           6.0039    5.0450    2.0514 C.ar    1  LIG1       -0.0094
     21 C           5.0719    3.0935    3.3442 C.ar    1  LIG1        0.0021
     22 C           4.2228    3.4274    4.3815 C.ar    1  LIG1        0.0283
     23 C           4.1457    2.5889    5.5269 C.ar    1  LIG1       -0.0495
     24 H           3.5701    2.8277    6.2440 H       1  LIG1        0.0625
     25 C           4.8877    1.4450    5.6134 C.ar    1  LIG1       -0.0533
     26 H           4.7968    0.8830    6.3743 H       1  LIG1        0.0624
     27 C           5.7855    1.0868    4.5853 C.ar    1  LIG1       -0.0173
     28 C           6.5577   -0.0969    4.6554 C.ar    1  LIG1       -0.0540
     29 H           6.4551   -0.6818    5.3974 H       1  LIG1        0.0624
     30 C           7.4567   -0.4125    3.6598 C.ar    1  LIG1       -0.0612
     31 H           7.9760   -1.2059    3.7180 H       1  LIG1        0.0618
     32 C           7.6010    0.4459    2.5586 C.ar    1  LIG1       -0.0611
     33 H           8.2271    0.2298    1.8768 H       1  LIG1        0.0618
     34 C           6.8569    1.5842    2.4510 C.ar    1  LIG1       -0.0534
     35 H           6.9731    2.1516    1.6982 H       1  LIG1        0.0624
     36 C           5.9085    1.9332    3.4522 C.ar    1  LIG1       -0.0094
     37 C           1.7259    2.6554    0.1893 C.ar    1  LIG1        0.0199
     38 C           1.2161    3.9281    0.4361 C.ar    1  LIG1       -0.0507
     39 H           1.7472    4.5786    0.8802 H       1  LIG1        0.0625
     40 C          -0.0770    4.2400    0.0296 C.ar    1  LIG1       -0.0611
     41 H          -0.4216    5.1122    0.1786 H       1  LIG1        0.0618
     42 C          -0.8638    3.2889   -0.5911 C.ar    1  LIG1       -0.0617
     43 H          -1.7462    3.5113   -0.8654 H       1  LIG1        0.0618
     44 C          -0.3777    2.0242   -0.8150 C.ar    1  LIG1       -0.0611
     45 H          -0.9248    1.3692   -1.2305 H       1  LIG1        0.0618
     46 C           0.9293    1.7063   -0.4282 C.ar    1  LIG1       -0.0507
     47 H           1.2715    0.8356   -0.5901 H       1  LIG1        0.0625
     48 C           4.0587    0.9611   -0.1983 C.ar    1  LIG1        0.0199
     49 C           3.9761    1.0625   -1.5906 C.ar    1  LIG1       -0.0507
     50 H           3.5047    1.7851   -1.9892 H       1  LIG1        0.0625
     51 C           4.5879    0.0999   -2.3899 C.ar    1  LIG1       -0.0611
     52 H           4.5178    0.1557   -3.3361 H       1  LIG1        0.0618
     53 C           5.2990   -0.9377   -1.8126 C.ar    1  LIG1       -0.0617
     54 H           5.7057   -1.5990   -2.3603 H       1  LIG1        0.0618
     55 C           5.4154   -1.0099   -0.4322 C.ar    1  LIG1       -0.0611
     56 H           5.9373   -1.6977   -0.0365 H       1  LIG1        0.0618
     57 C           4.7731   -0.0817    0.3690 C.ar    1  LIG1       -0.0507
     58 H           4.8233   -0.1595    1.3153 H       1  LIG1        0.0625
     59 C           1.6124    4.3226    5.1358 C.ar    1  LIG1        0.0199
     60 C           0.9666    5.0886    6.1049 C.ar    1  LIG1       -0.0507
     61 H           1.3551    5.8984    6.4147 H       1  LIG1        0.0625
     62 C          -0.2647    4.6505    6.6190 C.ar    1  LIG1       -0.0611
     63 H          -0.7194    5.1749    7.2673 H       1  LIG1        0.0618
     64 C          -0.8141    3.4707    6.1907 C.ar    1  LIG1       -0.0617
     65 H          -1.6375    3.1714    6.5598 H       1  LIG1        0.0618
     66 C          -0.1803    2.7158    5.2297 C.ar    1  LIG1       -0.0611
     67 H          -0.5714    1.9047    4.9307 H       1  LIG1        0.0618
     68 C           1.0340    3.1399    4.6958 C.ar    1  LIG1       -0.0507
     69 H           1.4667    2.6188    4.0298 H       1  LIG1        0.0625
     70 C           3.8824    6.0982    5.4270 C.ar    1  LIG1        0.0199
     71 C           4.8787    5.8144    6.3545 C.ar    1  LIG1       -0.0507
     72 H           5.2170    4.9299    6.4335 H       1  LIG1        0.0625
     73 C           5.3803    6.8259    7.1637 C.ar    1  LIG1       -0.0611
     74 H           6.0727    6.6333    7.7843 H       1  LIG1        0.0618
     75 C           4.8786    8.1104    7.0739 C.ar    1  LIG1       -0.0617
     76 H           5.2142    8.7925    7.6432 H       1  LIG1        0.0618
     77 C           3.8910    8.4007    6.1552 C.ar    1  LIG1       -0.0611
     78 H           3.5500    9.2844    6.0871 H       1  LIG1        0.0618
     79 C           3.3993    7.4036    5.3352 C.ar    1  LIG1       -0.0507
     80 H           2.7229    7.6094    4.7008 H       1  LIG1        0.0625
@<TRIPOS>BOND
     1    52    51    1
     2    51    53   ar
     3    51    49   ar
     4    54    53    1
     5    50    49    1
     6    53    55   ar
     7    49    48   ar
     8    45    44    1
     9    10     9    1
    10     8     7    1
    11    43    42    1
    12    44    42   ar
    13    44    46   ar
    14    42    40   ar
    15    47    46    1
    16    55    56    1
    17    55    57   ar
    18    46    37   ar
    19     9     7   ar
    20     9    11   ar
    21    48    57   ar
    22    48     1    1
    23     7     6   ar
    24    40    41    1
    25    40    38   ar
    26    13    12    1
    27    37    38   ar
    28    37     1    1
    29    57    58    1
    30    38    39    1
    31    11    12   ar
    32    11    20   ar
    33    12    14   ar
    34     1     6    1
    35     1     3    2
    36     6     5   ar
    37    35    34    1
    38    33    32    1
    39    15    14    1
    40    14    16   ar
    41    20     5   ar
    42    20    18   ar
    43     5    21    1
    44    34    32   ar
    45    34    36   ar
    46    32    30   ar
    47     4     2    2
    48    16    18   ar
    49    16    17    1
    50    18    19    1
    51    21    36   ar
    52    21    22   ar
    53    36    27   ar
    54    30    31    1
    55    30    28   ar
    56    69    68    1
    57     2    22    1
    58     2    59    1
    59     2    70    1
    60    22    23   ar
    61    27    28   ar
    62    27    25   ar
    63    28    29    1
    64    68    59   ar
    65    68    66   ar
    66    80    79    1
    67    67    66    1
    68    59    60   ar
    69    66    64   ar
    70    79    70   ar
    71    79    77   ar
    72    70    71   ar
    73    23    25   ar
    74    23    24    1
    75    25    26    1
    76    78    77    1
    77    60    61    1
    78    60    62   ar
    79    77    75   ar
    80    64    65    1
    81    64    62   ar
    82    71    72    1
    83    71    73   ar
    84    62    63    1
    85    75    73   ar
    86    75    76    1
    87    73    74    1
