@<TRIPOS>MOLECULE
1-(aminomethyl)cyclohexaneacetic acid
 29 29 0 0 0
SMALL
GASTEIGER

@<TRIPOS>ATOM
      1 O           1.9114    1.5384   10.6381 O.co2   1  LIG1       -0.2464
      2 O           0.1753    2.2790    9.4640 O.co2   1  LIG1       -0.2464
      3 N           1.3058    5.7757   10.7975 N.4     1  LIG1        0.2189
      4 H           2.1470    5.4390   10.9551 H       1  LIG1        0.1994
      5 H           0.7361    5.5428   11.4783 H       1  LIG1        0.1994
      6 H           1.3834    6.7330   10.8149 H       1  LIG1        0.1994
      7 C           1.7191    4.6547    8.5493 C.3     1  LIG1        0.0208
      8 C           0.9829    4.2889    7.2414 C.3     1  LIG1       -0.0420
      9 H           1.5771    3.6952    6.7320 H       1  LIG1        0.0273
     10 H           0.1659    3.7851    7.4667 H       1  LIG1        0.0273
     11 C           0.6504    5.4881    6.3467 C.3     1  LIG1       -0.0524
     12 H           0.2391    5.1622    5.4943 H       1  LIG1        0.0265
     13 H          -0.0212    6.0687    6.7988 H       1  LIG1        0.0265
     14 C           1.8936    6.3254    6.0510 C.3     1  LIG1       -0.0530
     15 H           2.5660    5.7850    5.5098 H       1  LIG1        0.0265
     16 H           1.6670    7.1343    5.4876 H       1  LIG1        0.0265
     17 C           2.5534    6.7800    7.3473 C.3     1  LIG1       -0.0524
     18 H           3.3804    7.2727    7.1706 H       1  LIG1        0.0265
     19 H           1.9634    7.4111    7.8384 H       1  LIG1        0.0265
     20 C           2.9171    5.5870    8.2251 C.3     1  LIG1       -0.0420
     21 H           3.3307    5.8887    9.0784 H       1  LIG1        0.0273
     22 H           3.6205    5.0515    7.7494 H       1  LIG1        0.0273
     23 C           0.7154    5.3359    9.4907 C.3     1  LIG1       -0.0291
     24 H           0.3458    6.1309    9.0740 H       1  LIG1        0.0819
     25 H          -0.0135    4.7470    9.6595 H       1  LIG1        0.0819
     26 C           2.3116    3.3907    9.2096 C.3     1  LIG1        0.0596
     27 H           2.8438    2.9409    8.5197 H       1  LIG1        0.0386
     28 H           2.9594    3.6329    9.9044 H       1  LIG1        0.0386
     29 C           1.3777    2.3405    9.8082 C.2     1  LIG1        0.3567
@<TRIPOS>BOND
     1    16    14    1
     2    12    11    1
     3    15    14    1
     4    14    11    1
     5    14    17    1
     6    11    13    1
     7    11     8    1
     8     9     8    1
     9    18    17    1
    10     8    10    1
    11     8     7    1
    12    17    19    1
    13    17    20    1
    14    22    20    1
    15    20     7    1
    16    20    21    1
    17    27    26    1
    18     7    26    1
    19     7    23    1
    20    24    23    1
    21    26    29    1
    22    26    28    1
    23     2    29   ar
    24    23    25    1
    25    23     3    1
    26    29     1   ar
    27     3     6    1
    28     3     4    1
    29     3     5    1
