@<TRIPOS>MOLECULE
(1S,3R,8S,10R)-2,2-dichloro-3,7,7,10-tetramethyltricyclo[6.4.0.0^1,3^]dodec- 9-one
 43 45 0 0 0
SMALL
GASTEIGER

@<TRIPOS>ATOM
      1 CL          7.4845    4.8394    0.9519 Cl      1  LIG1       -0.0997
      2 CL          8.9577    2.7851   -0.3819 Cl      1  LIG1       -0.0997
      3 O           7.1901    3.4429    4.7809 O.2     1  LIG1       -0.2968
      4 C           6.2676    2.5867    2.7759 C.3     1  LIG1        0.0318
      5 H           6.0220    3.5088    2.6705 H       1  LIG1        0.0389
      6 C           7.2404    2.5612    3.9561 C.2     1  LIG1        0.1403
      7 C           8.2350    1.4214    4.0631 C.3     1  LIG1        0.0150
      8 H           7.7453    0.6682    4.4015 H       1  LIG1        0.0375
      9 C           8.8144    1.0496    2.7125 C.3     1  LIG1       -0.0431
     10 H           9.3676    1.7730    2.4093 H       1  LIG1        0.0272
     11 H           9.3437    0.2539    2.7930 H       1  LIG1        0.0272
     12 C           7.7319    0.8169    1.6727 C.3     1  LIG1       -0.0428
     13 H           8.1490    0.5832    0.8411 H       1  LIG1        0.0272
     14 H           7.1623    0.0988    1.9588 H       1  LIG1        0.0272
     15 C           6.9267    2.0896    1.4937 C.3     1  LIG1        0.0221
     16 C           6.2120    2.4125    0.1662 C.3     1  LIG1        0.0103
     17 C           4.9065    3.1689    0.2595 C.3     1  LIG1       -0.0443
     18 H           5.0214    3.9189    0.8479 H       1  LIG1        0.0272
     19 H           4.6508    3.4823   -0.6115 H       1  LIG1        0.0272
     20 C           3.7690    2.3211    0.7991 C.3     1  LIG1       -0.0520
     21 H           3.0938    2.8874    1.1785 H       1  LIG1        0.0266
     22 H           3.3885    1.8027    0.0856 H       1  LIG1        0.0266
     23 C           4.1687    1.3417    1.9185 C.3     1  LIG1       -0.0472
     24 H           3.3967    0.8838    2.2603 H       1  LIG1        0.0271
     25 H           4.7829    0.7022    1.5494 H       1  LIG1        0.0271
     26 C           4.8815    1.9026    3.1450 C.3     1  LIG1       -0.0248
     27 C           9.2835    1.7156    5.1355 C.3     1  LIG1       -0.0557
     28 H           9.9067    0.9879    5.1963 H       1  LIG1        0.0236
     29 H           8.8544    1.8420    5.9859 H       1  LIG1        0.0236
     30 H           9.7499    2.5177    4.8905 H       1  LIG1        0.0236
     31 C           7.4878    3.1253    0.5336 C.3     1  LIG1        0.1311
     32 C           6.2370    1.3991   -0.9541 C.3     1  LIG1       -0.0562
     33 H           5.7487    1.7475   -1.7044 H       1  LIG1        0.0236
     34 H           5.8222    0.5896   -0.6501 H       1  LIG1        0.0236
     35 H           7.1417    1.2163   -1.2179 H       1  LIG1        0.0236
     36 C           4.0373    2.9808    3.8602 C.3     1  LIG1       -0.0592
     37 H           3.1886    2.6048    4.1051 H       1  LIG1        0.0235
     38 H           3.9016    3.7106    3.2521 H       1  LIG1        0.0235
     39 H           4.4845    3.2985    4.6481 H       1  LIG1        0.0235
     40 C           5.0219    0.7574    4.1574 C.3     1  LIG1       -0.0592
     41 H           4.1523    0.3909    4.3347 H       1  LIG1        0.0235
     42 H           5.4015    1.0878    4.9744 H       1  LIG1        0.0235
     43 H           5.5889    0.0733    3.7951 H       1  LIG1        0.0235
@<TRIPOS>BOND
     1    33    32    1
     2    35    32    1
     3    32    34    1
     4    32    16    1
     5    19    17    1
     6     2    31    1
     7    22    20    1
     8    16    17    1
     9    16    31    1
    10    16    15    1
    11    17    20    1
    12    17    18    1
    13    31     1    1
    14    31    15    1
    15    20    21    1
    16    20    23    1
    17    13    12    1
    18    15    12    1
    19    15     4    1
    20    25    23    1
    21    12    14    1
    22    12     9    1
    23    23    24    1
    24    23    26    1
    25    10     9    1
    26     5     4    1
    27     9    11    1
    28     9     7    1
    29     4    26    1
    30     4     6    1
    31    26    36    1
    32    26    40    1
    33    38    36    1
    34    43    40    1
    35    36    37    1
    36    36    39    1
    37     6     7    1
    38     6     3    2
    39     7     8    1
    40     7    27    1
    41    40    41    1
    42    40    42    1
    43    30    27    1
    44    27    28    1
    45    27    29    1
