@<TRIPOS>MOLECULE
5-(4-Bromophenyl)-2-phenyl-1,5,6,10b-tetrahydropyrazolo[1,5-c]quinazoline
 44 48 0 0 0
SMALL
GASTEIGER

@<TRIPOS>ATOM
      1 C          -2.0331    2.9509    0.7519 C.3     1  LIG1       -0.0041
      2 C          -2.6876    2.0102    1.7385 C.3     1  LIG1        0.1053
      3 C          -2.8986    0.5765    1.4957 C.ar    1  LIG1       -0.0222
      4 C          -2.3872   -0.0128    0.3418 C.ar    1  LIG1       -0.0566
      5 C          -2.5837   -1.3756    0.0949 C.ar    1  LIG1       -0.0614
      6 C          -3.2707   -2.1506    1.0151 C.ar    1  LIG1       -0.0617
      7 C          -3.7975   -1.5684    2.1568 C.ar    1  LIG1       -0.0614
      8 C          -3.6272   -0.2124    2.3935 C.ar    1  LIG1       -0.0566
      9 N          -3.1015    2.6093    2.8006 N.3     1  LIG1       -0.1433
     10 N          -2.8794    4.0000    2.6487 N.3     1  LIG1       -0.1929
     11 C          -2.6109    4.6545    3.9320 C.3     1  LIG1        0.1157
     12 C          -2.7064    6.1703    3.7351 C.ar    1  LIG1       -0.0114
     13 C          -3.6213    6.7219    2.8383 C.ar    1  LIG1       -0.0544
     14 C          -3.7247    8.1022    2.6781 C.ar    1  LIG1       -0.0474
     15 C          -2.9164    8.9215    3.4402 C.ar    1  LIG1        0.0179
     16 BR         -3.0436   10.8117    3.2170 Br      1  LIG1       -0.0503
     17 C          -2.0370    8.4035    4.3554 C.ar    1  LIG1       -0.0474
     18 C          -1.9307    7.0290    4.4891 C.ar    1  LIG1       -0.0544
     19 N          -1.3471    4.2332    4.4769 N.pl3   1  LIG1       -0.3235
     20 C          -0.2434    4.2244    3.6474 C.ar    1  LIG1        0.0333
     21 C           1.0499    4.1770    4.1860 C.ar    1  LIG1       -0.0405
     22 C           2.1532    4.1790    3.3423 C.ar    1  LIG1       -0.0600
     23 C           1.9903    4.2318    1.9711 C.ar    1  LIG1       -0.0613
     24 C           0.7094    4.2505    1.4365 C.ar    1  LIG1       -0.0553
     25 C          -0.4193    4.2331    2.2517 C.ar    1  LIG1       -0.0079
     26 C          -1.8062    4.1887    1.6334 C.3     1  LIG1        0.0577
     27 H          -2.6319    3.1512   -0.0102 H       1  LIG1        0.0307
     28 H          -1.1790    2.5845    0.4122 H       1  LIG1        0.0307
     29 H          -1.9005    0.5135   -0.2806 H       1  LIG1        0.0621
     30 H          -2.2477   -1.7692   -0.7019 H       1  LIG1        0.0618
     31 H          -3.3807   -3.0817    0.8631 H       1  LIG1        0.0618
     32 H          -4.2778   -2.1011    2.7802 H       1  LIG1        0.0618
     33 H          -4.0078    0.1835    3.1699 H       1  LIG1        0.0621
     34 H          -3.3287    4.3816    4.5727 H       1  LIG1        0.0734
     35 H          -4.1824    6.1491    2.3292 H       1  LIG1        0.0622
     36 H          -4.3395    8.4730    2.0558 H       1  LIG1        0.0629
     37 H          -1.5068    8.9811    4.8920 H       1  LIG1        0.0629
     38 H          -1.3110    6.6699    5.1124 H       1  LIG1        0.0622
     39 H          -1.2616    4.1417    5.3481 H       1  LIG1        0.1479
     40 H           1.1717    4.1438    5.1277 H       1  LIG1        0.0636
     41 H           3.0275    4.1452    3.7106 H       1  LIG1        0.0618
     42 H           2.7487    4.2539    1.3987 H       1  LIG1        0.0618
     43 H           0.6000    4.2764    0.4928 H       1  LIG1        0.0621
     44 H          -1.9738    5.0213    1.1059 H       1  LIG1        0.0528
@<TRIPOS>BOND
     1    30     5    1
     2    29     4    1
     3    27     1    1
     4     5     4   ar
     5     5     6   ar
     6     4     3   ar
     7    28     1    1
     8    43    24    1
     9     1    26    1
    10     1     2    1
    11    31     6    1
    12     6     7   ar
    13    44    26    1
    14    42    23    1
    15    24    23   ar
    16    24    25   ar
    17     3     2    1
    18     3     8   ar
    19    26    25    1
    20    26    10    1
    21     2     9    1
    22    23    22   ar
    23    36    14    1
    24     7     8   ar
    25     7    32    1
    26    25    20   ar
    27    35    13    1
    28     8    33    1
    29    10     9    1
    30    10    11    1
    31    14    13   ar
    32    14    15   ar
    33    13    12   ar
    34    16    15    1
    35    22    41    1
    36    22    21   ar
    37    15    17   ar
    38    20    21   ar
    39    20    19    1
    40    12    11    1
    41    12    18   ar
    42    11    19    1
    43    11    34    1
    44    21    40    1
    45    17    18   ar
    46    17    37    1
    47    19    39    1
    48    18    38    1
