@<TRIPOS>MOLECULE
2-Amino-4-(pyrid-4-yl)pyrimidine 4-aminobenzoic acid
 38 39 0 0 0
SMALL
GASTEIGER

@<TRIPOS>ATOM
      1 N          -6.3666   11.8962   -2.4969 N.ar    1  LIG1       -0.2231
      2 C          -5.1665   12.4712   -2.7483 C.ar    1  LIG1        0.2130
      3 N          -5.1378   13.4297   -3.6866 N.pl3   1  LIG1       -0.3275
      4 H          -5.9367   13.7199   -4.0535 H       1  LIG1        0.1452
      5 H          -4.3173   13.7410   -3.9607 H       1  LIG1        0.1452
      6 N          -4.0064   12.1713   -2.1240 N.ar    1  LIG1       -0.2147
      7 C          -4.0658   11.2160   -1.1881 C.ar    1  LIG1        0.0761
      8 C          -5.2382   10.5355   -0.8921 C.ar    1  LIG1       -0.0174
      9 H          -5.2648    9.8353   -0.2498 H       1  LIG1        0.0654
     10 C          -6.3635   10.9345   -1.5843 C.ar    1  LIG1        0.0332
     11 H          -7.1836   10.4942   -1.3966 H       1  LIG1        0.0831
     12 C          -2.8224   10.9556   -0.4156 C.ar    1  LIG1        0.0034
     13 C          -2.4924    9.6767    0.0107 C.ar    1  LIG1       -0.0344
     14 H          -3.0501    8.9393   -0.2062 H       1  LIG1        0.0639
     15 C          -1.3478    9.4893    0.7500 C.ar    1  LIG1        0.0282
     16 H          -1.1156    8.6046    1.0070 H       1  LIG1        0.0830
     17 N          -0.5486   10.4884    1.1244 N.ar    1  LIG1       -0.2632
     18 C          -0.8740   11.7220    0.7286 C.ar    1  LIG1        0.0282
     19 H          -0.3192   12.4444    0.9977 H       1  LIG1        0.0830
     20 C          -1.9761   11.9966   -0.0521 C.ar    1  LIG1       -0.0344
     21 H          -2.1553   12.8845   -0.3368 H       1  LIG1        0.0639
     22 C           3.0104    8.4981    3.6641 C.ar    2  LIG2        0.0589
     23 C           1.7113    8.8592    3.0637 C.2     2  LIG2        0.3368
     24 O           0.6884    8.1953    3.2227 O.2     2  LIG2       -0.2451
     25 O           1.7362    9.9555    2.3364 O.3     2  LIG2       -0.4771
     26 H           0.8233   10.1595    1.9411 H       2  LIG2        0.2954
     27 C           3.1136    7.3733    4.4831 C.ar    2  LIG2       -0.0460
     28 H           2.3429    6.8441    4.6487 H       2  LIG2        0.0626
     29 C           4.3135    7.0199    5.0541 C.ar    2  LIG2       -0.0403
     30 H           4.3570    6.2591    5.6221 H       2  LIG2        0.0636
     31 C           5.4761    7.7710    4.8088 C.ar    2  LIG2        0.0246
     32 N           6.6708    7.4592    5.3995 N.pl3   2  LIG2       -0.3580
     33 H           6.7727    6.7045    5.7877 H       2  LIG2        0.1423
     34 H           7.4190    7.7270    4.9741 H       2  LIG2        0.1423
     35 C           5.3668    8.8916    3.9717 C.ar    2  LIG2       -0.0403
     36 H           6.1394    9.4110    3.7830 H       2  LIG2        0.0636
     37 C           4.1609    9.2508    3.4208 C.ar    2  LIG2       -0.0460
     38 H           4.1091   10.0224    2.8674 H       2  LIG2        0.0626
@<TRIPOS>BOND
     1     4     3    1
     2     5     3    1
     3     3     2    1
     4     2     1   ar
     5     2     6   ar
     6     1    10   ar
     7     6     7   ar
     8    10    11    1
     9    10     8   ar
    10     7     8   ar
    11     7    12    1
    12     8     9    1
    13    12    20   ar
    14    12    13   ar
    15    21    20    1
    16    14    13    1
    17    20    18   ar
    18    13    15   ar
    19    18    19    1
    20    18    17   ar
    21    15    16    1
    22    15    17   ar
    23    26    25    1
    24    25    23    1
    25    38    37    1
    26    23    24    2
    27    23    22    1
    28    37    22   ar
    29    37    35   ar
    30    22    27   ar
    31    36    35    1
    32    35    31   ar
    33    27    28    1
    34    27    29   ar
    35    31    29   ar
    36    31    32    1
    37    34    32    1
    38    29    30    1
    39    32    33    1
