@<TRIPOS>MOLECULE
(-)-2-(1,2,3,4,6,8a-hexahydro-5,8a-dimethyl-4,6-dioxo-3-naphthyl)propionic acid monohydrate
 80 80 0 0 0
SMALL
GASTEIGER

@<TRIPOS>ATOM
      1 O           6.5659    6.7958    1.5585 O.2     1  LIG1       -0.2920
      2 O           3.5815    4.3226    5.1578 O.2     1  LIG1       -0.2876
      3 O           6.9684    9.7900    2.6242 O.2     1  LIG1       -0.2507
      4 O           7.8306    9.7446    0.5758 O.3     1  LIG1       -0.4804
      5 O           4.5757   10.8729    3.6540 O.3     2  HOH2       -0.4105
      6 C           7.0688    6.5394    2.6431 C.2     1  LIG1        0.1642
      7 C           8.2467    7.2880    3.1858 C.3     1  LIG1        0.0345
      8 C           9.2993    6.3123    3.7078 C.3     1  LIG1       -0.0413
      9 C           8.7099    5.1948    4.5904 C.3     1  LIG1       -0.0393
     10 C           7.5531    4.4244    3.9004 C.3     1  LIG1        0.0150
     11 C           7.0006    3.4032    4.8406 C.2     1  LIG1       -0.0701
     12 C           5.7440    3.3869    5.2314 C.2     1  LIG1       -0.0178
     13 C           4.7724    4.3681    4.8075 C.2     1  LIG1        0.1820
     14 C           5.2507    5.4637    3.9363 C.2     1  LIG1        0.0035
     15 C           6.5261    5.4546    3.5087 C.2     1  LIG1        0.0115
     16 C           8.7992    8.3055    2.1777 C.3     1  LIG1        0.0632
     17 C           7.7473    9.3285    1.8181 C.2     1  LIG1        0.3082
     18 C          10.0091    9.0450    2.7073 C.3     1  LIG1       -0.0516
     19 C           4.2567    6.5448    3.6087 C.3     1  LIG1       -0.0357
     20 C           8.0970    3.6849    2.6525 C.3     1  LIG1       -0.0519
     21 O           0.7293    5.5155   10.3353 O.2     3  LIG3       -0.2920
     22 O          -2.4293    7.9003    6.7983 O.2     3  LIG3       -0.2876
     23 O           1.0004    2.6119    9.4329 O.2     3  LIG3       -0.2507
     24 O           2.1114    2.7237   11.3699 O.3     3  LIG3       -0.4804
     25 O           4.7378   10.1498    6.2556 O.3     4  HOH4       -0.4105
     26 C           1.1483    5.7599    9.2252 C.2     3  LIG3        0.1642
     27 C           2.3093    5.0186    8.6032 C.3     3  LIG3        0.0345
     28 C           3.3266    6.0270    8.0340 C.3     3  LIG3       -0.0413
     29 C           2.6751    7.1136    7.1854 C.3     3  LIG3       -0.0393
     30 C           1.5575    7.8658    7.9452 C.3     3  LIG3        0.0150
     31 C           0.9480    8.8997    7.0466 C.2     3  LIG3       -0.0701
     32 C          -0.3225    8.9197    6.6955 C.2     3  LIG3       -0.0178
     33 C          -1.2500    7.8876    7.1429 C.2     3  LIG3        0.1820
     34 C          -0.7195    6.8119    8.0047 C.2     3  LIG3        0.0035
     35 C           0.5584    6.8446    8.3832 C.2     3  LIG3        0.0115
     36 C           2.9255    4.0337    9.5906 C.3     3  LIG3        0.0632
     37 C           1.8933    3.0744   10.1163 C.2     3  LIG3        0.3082
     38 C           4.0637    3.1997    8.9694 C.3     3  LIG3       -0.0516
     39 C          -1.6952    5.7326    8.3559 C.3     3  LIG3       -0.0357
     40 C           2.1579    8.5962    9.1724 C.3     3  LIG3       -0.0519
     41 H           7.2613   10.4841    0.4531 H       1  LIG1        0.2951
     42 H           5.3024   10.6476    3.3199 H       0  HOH0        0.2052
     43 H           4.2045   11.6215    3.6229 H       0  HOH0        0.2052
     44 H           7.9234    7.8040    3.9655 H       1  LIG1        0.0389
     45 H           9.9643    6.8119    4.2270 H       1  LIG1        0.0273
     46 H           9.7608    5.9052    2.9451 H       1  LIG1        0.0273
     47 H           8.3770    5.5891    5.4239 H       1  LIG1        0.0277
     48 H           9.4210    4.5625    4.8227 H       1  LIG1        0.0277
     49 H           7.5800    2.7400    5.1700 H       1  LIG1        0.0582
     50 H           5.4648    2.7037    5.8129 H       1  LIG1        0.0653
     51 H           9.0622    7.8222    1.3546 H       1  LIG1        0.0418
     52 H          10.7541    8.4309    2.7884 H       1  LIG1        0.0238
     53 H           9.8028    9.4193    3.5785 H       1  LIG1        0.0238
     54 H          10.2439    9.7609    2.0956 H       1  LIG1        0.0238
     55 H           3.9198    6.9337    4.4309 H       1  LIG1        0.0279
     56 H           3.5202    6.1651    3.1047 H       1  LIG1        0.0279
     57 H           4.6895    7.2335    3.0801 H       1  LIG1        0.0279
     58 H           8.4461    4.3317    2.0210 H       1  LIG1        0.0241
     59 H           7.3785    3.1816    2.2372 H       1  LIG1        0.0241
     60 H           8.8044    3.0780    2.9196 H       1  LIG1        0.0241
     61 H           1.6513    2.1259   11.6956 H       3  LIG3        0.2951
     62 H           5.2343    9.5047    6.4245 H       0  HOH0        0.2052
     63 H           4.8124   10.3533    5.4523 H       0  HOH0        0.2052
     64 H           1.9534    4.4934    7.8424 H       3  LIG3        0.0389
     65 H           3.8077    6.4485    8.7769 H       3  LIG3        0.0273
     66 H           3.9823    5.5455    7.4874 H       3  LIG3        0.0273
     67 H           2.2968    6.7065    6.3792 H       3  LIG3        0.0277
     68 H           3.3609    7.7550    6.9050 H       3  LIG3        0.0277
     69 H           1.5074    9.5756    6.7124 H       3  LIG3        0.0582
     70 H          -0.6365    9.6119    6.1442 H       3  LIG3        0.0653
     71 H           3.2931    4.5461   10.3542 H       3  LIG3        0.0418
     72 H           4.4190    2.5910    9.6359 H       3  LIG3        0.0238
     73 H           4.7687    3.7921    8.6645 H       3  LIG3        0.0238
     74 H           3.7201    2.6910    8.2180 H       3  LIG3        0.0238
     75 H          -1.2600    5.0749    8.9213 H       3  LIG3        0.0279
     76 H          -2.0099    5.3038    7.5450 H       3  LIG3        0.0279
     77 H          -2.4480    6.1178    8.8307 H       3  LIG3        0.0279
     78 H           1.4536    9.0686    9.6444 H       3  LIG3        0.0241
     79 H           2.8291    9.2304    8.8760 H       3  LIG3        0.0241
     80 H           2.5661    7.9476    9.7671 H       3  LIG3        0.0241
@<TRIPOS>BOND
     1    41     4    1
     2     4    17    1
     3    51    16    1
     4     1     6    2
     5    17    16    1
     6    17     3    2
     7    58    20    1
     8    54    18    1
     9    16    18    1
    10    16     7    1
    11    59    20    1
    12     6     7    1
    13     6    15    1
    14    20    60    1
    15    20    10    1
    16    18    52    1
    17    18    53    1
    18    46     8    1
    19    57    19    1
    20    56    19    1
    21     7     8    1
    22     7    44    1
    23    42     5    1
    24    15    10    1
    25    15    14    2
    26    19    14    1
    27    19    55    1
    28    43     5    1
    29     8    45    1
    30     8     9    1
    31    10     9    1
    32    10    11    1
    33    14    13    1
    34     9    48    1
    35     9    47    1
    36    13     2    2
    37    13    12    1
    38    11    49    1
    39    11    12    2
    40    12    50    1
    41    63    25    1
    42    70    32    1
    43    25    62    1
    44    67    29    1
    45    32    31    2
    46    32    33    1
    47    69    31    1
    48    22    33    2
    49    68    29    1
    50    31    30    1
    51    33    34    1
    52    29    30    1
    53    29    28    1
    54    66    28    1
    55    76    39    1
    56    64    27    1
    57    30    35    1
    58    30    40    1
    59    34    39    1
    60    34    35    2
    61    28    27    1
    62    28    65    1
    63    74    38    1
    64    39    77    1
    65    39    75    1
    66    35    26    1
    67    27    26    1
    68    27    36    1
    69    73    38    1
    70    79    40    1
    71    38    36    1
    72    38    72    1
    73    40    78    1
    74    40    80    1
    75    26    21    2
    76    23    37    2
    77    36    37    1
    78    36    71    1
    79    37    24    1
    80    24    61    1
