@<TRIPOS>MOLECULE
Dispiro[fluorene-9,5'-[1,2,3,4]tetrathiane-6',9''-fluorene]
 46 52 0 0 0
SMALL
GASTEIGER

@<TRIPOS>ATOM
      1 S           6.0846    4.1005    2.7173 S.3     1  LIG1       -0.0627
      2 S           7.8427    3.4329    1.8925 S.3     1  LIG1       -0.0116
      3 S           7.3823    1.4445    1.6251 S.3     1  LIG1       -0.0116
      4 S           5.9709    1.5863    0.1387 S.3     1  LIG1       -0.0627
      5 C           4.8340    3.9651    1.3434 C.3     1  LIG1        0.1018
      6 C           5.1726    4.9112    0.1893 C.ar    1  LIG1       -0.0165
      7 C           6.1903    4.8521   -0.7655 C.ar    1  LIG1       -0.0563
      8 H           6.8320    4.1522   -0.7507 H       1  LIG1        0.0621
      9 C           6.2416    5.8497   -1.7423 C.ar    1  LIG1       -0.0614
     10 H           6.9212    5.8149   -2.4050 H       1  LIG1        0.0618
     11 C           5.3283    6.8833   -1.7668 C.ar    1  LIG1       -0.0612
     12 H           5.3770    7.5407   -2.4521 H       1  LIG1        0.0618
     13 C           4.3354    6.9702   -0.7971 C.ar    1  LIG1       -0.0537
     14 H           3.7166    7.6920   -0.8011 H       1  LIG1        0.0624
     15 C           4.2655    5.9850    0.1752 C.ar    1  LIG1       -0.0127
     16 C           3.3255    5.8400    1.2949 C.ar    1  LIG1       -0.0127
     17 C           2.3129    6.6848    1.7275 C.ar    1  LIG1       -0.0537
     18 H           2.1157    7.4848    1.2563 H       1  LIG1        0.0624
     19 C           1.5942    6.3362    2.8641 C.ar    1  LIG1       -0.0612
     20 H           0.8971    6.9048    3.1709 H       1  LIG1        0.0618
     21 C           1.8806    5.1702    3.5563 C.ar    1  LIG1       -0.0614
     22 H           1.3726    4.9448    4.3264 H       1  LIG1        0.0618
     23 C           2.9074    4.3219    3.1361 C.ar    1  LIG1       -0.0563
     24 H           3.1154    3.5343    3.6260 H       1  LIG1        0.0621
     25 C           3.6207    4.6512    1.9850 C.ar    1  LIG1       -0.0165
     26 C           4.5298    2.4767    0.9225 C.3     1  LIG1        0.1018
     27 C           3.4856    2.4162   -0.2057 C.ar    1  LIG1       -0.0165
     28 C           3.5396    2.9010   -1.5077 C.ar    1  LIG1       -0.0563
     29 H           4.3083    3.3632   -1.8206 H       1  LIG1        0.0621
     30 C           2.4453    2.6954   -2.3466 C.ar    1  LIG1       -0.0614
     31 H           2.4723    3.0191   -3.2398 H       1  LIG1        0.0618
     32 C           1.3159    2.0242   -1.8968 C.ar    1  LIG1       -0.0612
     33 H           0.5674    1.9185   -2.4739 H       1  LIG1        0.0618
     34 C           1.2740    1.5071   -0.6087 C.ar    1  LIG1       -0.0537
     35 H           0.5066    1.0358   -0.3040 H       1  LIG1        0.0624
     36 C           2.3637    1.6858    0.2254 C.ar    1  LIG1       -0.0127
     37 C           2.6250    1.1781    1.5755 C.ar    1  LIG1       -0.0127
     38 C           1.8320    0.3563    2.3770 C.ar    1  LIG1       -0.0537
     39 H           0.9741    0.0721    2.0826 H       1  LIG1        0.0624
     40 C           2.3237   -0.0369    3.6092 C.ar    1  LIG1       -0.0612
     41 H           1.7955   -0.5945    4.1685 H       1  LIG1        0.0618
     42 C           3.5815    0.3756    4.0397 C.ar    1  LIG1       -0.0614
     43 H           3.9071    0.0865    4.8840 H       1  LIG1        0.0618
     44 C           4.3718    1.2062    3.2483 C.ar    1  LIG1       -0.0563
     45 H           5.2230    1.4988    3.5521 H       1  LIG1        0.0621
     46 C           3.8882    1.6011    2.0035 C.ar    1  LIG1       -0.0165
@<TRIPOS>BOND
     1    31    30    1
     2    33    32    1
     3    12    11    1
     4    10     9    1
     5    30    32   ar
     6    30    28   ar
     7    32    34   ar
     8    29    28    1
     9    11     9   ar
    10    11    13   ar
    11     9     7   ar
    12    28    27   ar
    13    14    13    1
    14    13    15   ar
    15     7     8    1
    16     7     6   ar
    17    34    35    1
    18    34    36   ar
    19    27    36   ar
    20    27    26    1
    21     4    26    1
    22     4     3    1
    23    15     6   ar
    24    15    16    1
    25     6     5    1
    26    36    37    1
    27    26     5    1
    28    26    46    1
    29    18    17    1
    30    16    17   ar
    31    16    25   ar
    32     5    25    1
    33     5     1    1
    34    37    46   ar
    35    37    38   ar
    36     3     2    1
    37    17    19   ar
    38     2     1    1
    39    25    23   ar
    40    46    44   ar
    41    39    38    1
    42    38    40   ar
    43    19    20    1
    44    19    21   ar
    45    23    21   ar
    46    23    24    1
    47    44    45    1
    48    44    42   ar
    49    21    22    1
    50    40    42   ar
    51    40    41    1
    52    42    43    1
