@<TRIPOS>MOLECULE
2-(N,N-Dimethylamino)-biphenyl-2',6'-dicarboxaldehyde
 68 70 0 0 0
SMALL
GASTEIGER

@<TRIPOS>ATOM
      1 O          15.9620    6.4772    3.3047 O.2     1  LIG1       -0.2957
      2 O          10.3353    2.1222    3.6505 O.2     1  LIG1       -0.2957
      3 N          15.0935    3.8149    0.8444 N.pl3   1  LIG1       -0.3355
      4 C          14.3852    2.6855    2.8778 C.ar    1  LIG1        0.0045
      5 C          15.1902    2.7187    1.7130 C.ar    1  LIG1        0.0370
      6 C          16.0981    1.6658    1.5119 C.ar    1  LIG1       -0.0401
      7 C          16.1829    0.6163    2.3992 C.ar    1  LIG1       -0.0600
      8 C          15.3703    0.5588    3.4963 C.ar    1  LIG1       -0.0611
      9 C          14.4700    1.5969    3.7242 C.ar    1  LIG1       -0.0522
     10 C          13.5018    3.8330    3.2490 C.ar    1  LIG1        0.0043
     11 C          14.0331    5.1165    3.4441 C.ar    1  LIG1        0.0226
     12 C          13.2235    6.1699    3.8368 C.ar    1  LIG1       -0.0509
     13 C          11.8760    5.9873    4.0667 C.ar    1  LIG1       -0.0604
     14 C          11.3390    4.7371    3.8864 C.ar    1  LIG1       -0.0509
     15 C          12.1290    3.6597    3.4849 C.ar    1  LIG1        0.0226
     16 C          13.7900    3.9804    0.2017 C.3     1  LIG1        0.0004
     17 C          16.1699    3.9849   -0.1233 C.3     1  LIG1        0.0004
     18 C          15.4826    5.3839    3.2872 C.2     1  LIG1        0.1508
     19 C          11.4579    2.3592    3.2638 C.2     1  LIG1        0.1508
     20 O          12.3521    7.6018    0.3157 O.2     2  LIG2       -0.2957
     21 O          18.2391   11.4647   -0.8726 O.2     2  LIG2       -0.2957
     22 N          13.0329   10.0713   -2.6043 N.pl3   2  LIG2       -0.3355
     23 C          14.0926   11.1923   -0.7298 C.ar    2  LIG2        0.0045
     24 C          13.1158   11.1859   -1.7451 C.ar    2  LIG2        0.0370
     25 C          12.2360   12.2764   -1.8148 C.ar    2  LIG2       -0.0401
     26 C          12.3422   13.3301   -0.9409 C.ar    2  LIG2       -0.0600
     27 C          13.3394   13.3684    0.0161 C.ar    2  LIG2       -0.0611
     28 C          14.1995   12.2907    0.1180 C.ar    2  LIG2       -0.0522
     29 C          14.9476    9.9987   -0.4671 C.ar    2  LIG2        0.0043
     30 C          14.3713    8.7831   -0.0865 C.ar    2  LIG2        0.0226
     31 C          15.1633    7.6923    0.2480 C.ar    2  LIG2       -0.0509
     32 C          16.5440    7.7802    0.2044 C.ar    2  LIG2       -0.0604
     33 C          17.1304    8.9604   -0.1890 C.ar    2  LIG2       -0.0509
     34 C          16.3552   10.0735   -0.5187 C.ar    2  LIG2        0.0226
     35 C          14.1914    9.9044   -3.4762 C.3     2  LIG2        0.0004
     36 C          11.8038    9.9211   -3.3563 C.3     2  LIG2        0.0004
     37 C          12.9031    8.6335    0.0583 C.2     2  LIG2        0.1508
     38 C          17.0425   11.2986   -0.9811 C.2     2  LIG2        0.1508
     39 H          13.5931    7.0927    4.0010 H       1  LIG1        0.0625
     40 H          11.2906    6.7605    4.3495 H       1  LIG1        0.0618
     41 H          10.4126    4.5777    4.0144 H       1  LIG1        0.0625
     42 H          16.0642    4.5554    3.1767 H       1  LIG1        0.1082
     43 H          12.0510    1.6664    2.6874 H       1  LIG1        0.1082
     44 H          16.6675    1.7194    0.7037 H       1  LIG1        0.0636
     45 H          16.8091   -0.1117    2.2116 H       1  LIG1        0.0618
     46 H          15.4058   -0.1898    4.1618 H       1  LIG1        0.0618
     47 H          13.9033    1.5966    4.5304 H       1  LIG1        0.0624
     48 H          13.6866    3.3244   -0.4624 H       1  LIG1        0.0428
     49 H          13.6866    4.8848   -0.2614 H       1  LIG1        0.0428
     50 H          13.0848    3.8185    0.7774 H       1  LIG1        0.0428
     51 H          16.0713    4.8959   -0.5428 H       1  LIG1        0.0428
     52 H          17.0329    3.9385    0.3485 H       1  LIG1        0.0428
     53 H          16.1945    3.2351   -0.7908 H       1  LIG1        0.0428
     54 H          14.7005    6.8526    0.5562 H       2  LIG2        0.0625
     55 H          17.0852    7.0229    0.4490 H       2  LIG2        0.0618
     56 H          18.1232    9.0996   -0.2145 H       2  LIG2        0.0625
     57 H          12.3866    9.4904   -0.0536 H       2  LIG2        0.1082
     58 H          16.4367   12.0445   -1.4074 H       2  LIG2        0.1082
     59 H          11.5653   12.2259   -2.4395 H       2  LIG2        0.0636
     60 H          11.7961   14.1100   -0.9986 H       2  LIG2        0.0618
     61 H          13.3906   14.1575    0.6635 H       2  LIG2        0.0618
     62 H          14.8492   12.2231    0.8243 H       2  LIG2        0.0624
     63 H          14.2389   10.6265   -4.1618 H       2  LIG2        0.0428
     64 H          14.1992    9.0159   -3.8736 H       2  LIG2        0.0428
     65 H          15.0531    9.9984   -3.0091 H       2  LIG2        0.0428
     66 H          11.8513    8.9824   -3.7798 H       2  LIG2        0.0428
     67 H          11.7196   10.6711   -4.0613 H       2  LIG2        0.0428
     68 H          11.0031   10.0459   -2.7410 H       2  LIG2        0.0428
@<TRIPOS>BOND
     1    63    35    1
     2    67    36    1
     3    64    35    1
     4    66    36    1
     5    35    65    1
     6    35    22    1
     7    36    68    1
     8    36    22    1
     9    22    24    1
    10    59    25    1
    11    25    24   ar
    12    25    26   ar
    13    24    23   ar
    14    58    38    1
    15    60    26    1
    16    38    21    2
    17    38    34    1
    18    26    27   ar
    19    53    17    1
    20    23    29    1
    21    23    28   ar
    22    51    17    1
    23    34    29   ar
    24    34    33   ar
    25    29    30   ar
    26    48    16    1
    27    49    16    1
    28    56    33    1
    29    33    32   ar
    30    17    52    1
    31    17     3    1
    32    30    37    1
    33    30    31   ar
    34    57    37    1
    35    27    28   ar
    36    27    61    1
    37    37    20    2
    38    28    62    1
    39    16    50    1
    40    16     3    1
    41    32    31   ar
    42    32    55    1
    43    31    54    1
    44    44     6    1
    45     3     5    1
    46     6     5   ar
    47     6     7   ar
    48     5     4   ar
    49    45     7    1
    50     7     8   ar
    51    43    19    1
    52     4    10    1
    53     4     9   ar
    54    42    18    1
    55    10    11   ar
    56    10    15   ar
    57    19    15    1
    58    19     2    2
    59    18     1    2
    60    18    11    1
    61    11    12   ar
    62    15    14   ar
    63     8     9   ar
    64     8    46    1
    65     9    47    1
    66    12    39    1
    67    12    13   ar
    68    14    41    1
    69    14    13   ar
    70    13    40    1
