@<TRIPOS>MOLECULE
4,7-diiodo-2,1,3-benzothiadiazole
 13 14 0 0 0
SMALL
GASTEIGER

@<TRIPOS>ATOM
      1 I          10.2292   15.6786    4.2556 I       1  LIG1       -0.0415
      2 I           7.7332    9.5840    1.8982 I       1  LIG1       -0.0415
      3 S          11.5677   10.9361    4.7075 S.2     1  LIG1        0.1165
      4 N          11.2653   12.5224    4.6485 N.ar    1  LIG1       -0.1897
      5 N          10.3695   10.3597    3.7914 N.ar    1  LIG1       -0.1897
      6 C           9.5162   13.8789    3.5286 C.ar    1  LIG1        0.0416
      7 C          10.1720   12.6743    3.8765 C.ar    1  LIG1        0.1139
      8 C           9.6566   11.4228    3.3878 C.ar    1  LIG1        0.1139
      9 C           8.4986   11.4034    2.5547 C.ar    1  LIG1        0.0416
     10 C           7.9178   12.5834    2.2289 C.ar    1  LIG1       -0.0454
     11 H           7.1720   12.5852    1.6742 H       1  LIG1        0.0629
     12 C           8.4233   13.8199    2.7163 C.ar    1  LIG1       -0.0454
     13 H           7.9965   14.6084    2.4739 H       1  LIG1        0.0629
@<TRIPOS>BOND
     1    11    10    1
     2     2     9    1
     3    10     9   ar
     4    10    12   ar
     5    13    12    1
     6     9     8   ar
     7    12     6   ar
     8     8     5   ar
     9     8     7   ar
    10     6     7   ar
    11     6     1    1
    12     5     3   ar
    13     7     4   ar
    14     4     3   ar
