@<TRIPOS>MOLECULE
C28 H28 N O4 S 1+, Cl 1-
 63 66 0 0 0
SMALL
GASTEIGER

@<TRIPOS>ATOM
      1 S           4.5851    8.4497    6.6636 S.2     1  LIG1       -0.0874
      2 O          -0.0843    6.5704    5.2989 O.3     1  LIG1       -0.5067
      3 H           0.0067    7.1058    4.5139 H       1  LIG1        0.2921
      4 O           9.0446   11.5806   10.6196 O.3     1  LIG1       -0.5068
      5 H           9.8671   11.2300   10.3032 H       1  LIG1        0.2921
      6 O           2.5680    8.8245   11.0273 O.2     1  LIG1       -0.2866
      7 O           6.9605    5.4750   14.0524 O.3     1  LIG1       -0.4867
      8 N           8.8936    4.2166   16.0305 N.4     1  LIG1        0.2376
      9 H           9.0816    3.5778   16.6700 H       1  LIG1        0.2034
     10 C           4.7874    8.6421    8.3906 C.ar    1  LIG1        0.0313
     11 C           3.7065    8.1936    9.0793 C.ar    1  LIG1        0.0447
     12 C           2.6505    7.6929    8.2258 C.ar    1  LIG1        0.0008
     13 C           1.3908    7.1776    8.5627 C.ar    1  LIG1       -0.0494
     14 H           1.0925    7.1360    9.5180 H       1  LIG1        0.0625
     15 C           0.5152    6.7904    7.5728 C.ar    1  LIG1       -0.0195
     16 H          -0.3913    6.4359    7.7783 H       1  LIG1        0.0654
     17 C           0.8684    6.9132    6.2234 C.ar    1  LIG1        0.1180
     18 C           2.1133    7.3825    5.8481 C.ar    1  LIG1       -0.0058
     19 H           2.3805    7.4315    4.8894 H       1  LIG1        0.0665
     20 C           2.9988    7.7679    6.8683 C.ar    1  LIG1        0.0241
     21 C           5.9445    9.3851    8.9235 C.ar    1  LIG1       -0.0104
     22 C           7.2511    9.1691    8.5022 C.ar    1  LIG1       -0.0501
     23 H           7.4533    8.5414    7.8929 H       1  LIG1        0.0625
     24 C           8.3025    9.8841    9.0630 C.ar    1  LIG1       -0.0196
     25 H           9.2151    9.7077    8.7728 H       1  LIG1        0.0654
     26 C           8.0630   10.8283   10.0393 C.ar    1  LIG1        0.1169
     27 C           6.7645   11.0642   10.4491 C.ar    1  LIG1       -0.0196
     28 H           6.6344   11.7120   11.1143 H       1  LIG1        0.0654
     29 C           5.7247   10.3551    9.8933 C.ar    1  LIG1       -0.0501
     30 H           4.9115   10.5509   10.1599 H       1  LIG1        0.0625
     31 C           3.5475    8.2626   10.5592 C.2     1  LIG1        0.1948
     32 C           4.5332    7.5975   11.4525 C.ar    1  LIG1        0.0225
     33 C           5.4223    6.6266   11.0023 C.ar    1  LIG1       -0.0475
     34 H           5.5093    6.4714   10.0754 H       1  LIG1        0.0626
     35 C           6.2310    5.9424   11.8900 C.ar    1  LIG1       -0.0193
     36 H           6.8277    5.2604   11.5729 H       1  LIG1        0.0654
     37 C           6.1657    6.2319   13.2449 C.ar    1  LIG1        0.1208
     38 C           5.3322    7.2416   13.7049 C.ar    1  LIG1       -0.0193
     39 H           5.2751    7.4473   14.6567 H       1  LIG1        0.0654
     40 C           4.5056    7.8887   12.8101 C.ar    1  LIG1       -0.0475
     41 H           3.9102    8.5492   13.1305 H       1  LIG1        0.0626
     42 C           6.8609    5.6629   15.4556 C.3     1  LIG1        0.1291
     43 H           5.9420    5.7424   15.7572 H       1  LIG1        0.0751
     44 H           7.3293    6.5029   15.6698 H       1  LIG1        0.0751
     45 C           7.4155    4.4556   16.1575 C.3     1  LIG1        0.0031
     46 H           7.2334    4.5419   17.1415 H       1  LIG1        0.0848
     47 H           6.9797    3.6777   15.8418 H       1  LIG1        0.0848
     48 C           9.3244    3.6724   14.7004 C.3     1  LIG1       -0.0318
     49 H           9.2935    4.3948   14.0491 H       1  LIG1        0.0814
     50 H           8.6981    2.9553   14.4819 H       1  LIG1        0.0814
     51 C          10.7695    3.2292   14.7909 C.3     1  LIG1       -0.0123
     52 H          10.8882    2.6138   15.4334 H       1  LIG1        0.0317
     53 H          11.0238    2.8502   13.9087 H       1  LIG1        0.0317
     54 C          11.6643    4.3764   15.1898 C.3     1  LIG1       -0.0434
     55 H          11.6535    5.0962   14.5019 H       1  LIG1        0.0269
     56 H          12.5635    4.0717   15.2284 H       1  LIG1        0.0269
     57 C          11.1848    5.0042   16.4833 C.3     1  LIG1       -0.0123
     58 H          11.3030    4.4263   17.1530 H       1  LIG1        0.0317
     59 H          11.7006    5.8186   16.6801 H       1  LIG1        0.0317
     60 C           9.7228    5.3896   16.4203 C.3     1  LIG1       -0.0318
     61 H           9.3878    5.6872   17.3006 H       1  LIG1        0.0814
     62 H           9.5643    6.0852   15.6913 H       1  LIG1        0.0814
     63 CL          8.8526    2.1809   18.4157 Cl      2  LIG2        0.0000
@<TRIPOS>BOND
     1     3     2    1
     2    19    18    1
     3     2    17    1
     4    18    17   ar
     5    18    20   ar
     6    17    15   ar
     7     1    20   ar
     8     1    10   ar
     9    20    12   ar
    10    15    16    1
    11    15    13   ar
    12    23    22    1
    13    12    13   ar
    14    12    11   ar
    15    10    21    1
    16    10    11   ar
    17    22    21   ar
    18    22    24   ar
    19    13    14    1
    20    25    24    1
    21    21    29   ar
    22    24    26   ar
    23    11    31    1
    24    29    30    1
    25    29    27   ar
    26    26    27   ar
    27    26     4    1
    28    34    33    1
    29     5     4    1
    30    27    28    1
    31    31     6    2
    32    31    32    1
    33    33    32   ar
    34    33    35   ar
    35    32    40   ar
    36    36    35    1
    37    35    37   ar
    38    40    41    1
    39    40    38   ar
    40    37    38   ar
    41    37     7    1
    42    38    39    1
    43    53    51    1
    44    49    48    1
    45     7    42    1
    46    50    48    1
    47    55    54    1
    48    48    51    1
    49    48     8    1
    50    51    54    1
    51    51    52    1
    52    54    56    1
    53    54    57    1
    54    42    44    1
    55    42    43    1
    56    42    45    1
    57    62    60    1
    58    47    45    1
    59     8    45    1
    60     8    60    1
    61     8     9    1
    62    45    46    1
    63    60    57    1
    64    60    61    1
    65    57    59    1
    66    57    58    1
