@<TRIPOS>MOLECULE
1,3-dimethyl-2-oxo-4,6-diphenyl-1,2,3,4-tetrahydropyridine-3-carbonitrile
 41 43 0 0 0
SMALL
GASTEIGER

@<TRIPOS>ATOM
      1 O           8.0774    1.7768    6.9577 O.2     1  LIG1       -0.2735
      2 N           9.0319   -0.1248    6.1931 N.am    1  LIG1       -0.2729
      3 N           6.7628   -1.5391    9.0311 N.1     1  LIG1       -0.1955
      4 C           8.8764   -1.4696    5.7601 C.2     1  LIG1        0.0398
      5 C           7.6713   -1.9353    5.4903 C.2     1  LIG1       -0.0526
      6 H           7.5728   -2.8233    5.2309 H       1  LIG1        0.0597
      7 C           6.4619   -1.0645    5.5930 C.3     1  LIG1        0.0309
      8 H           6.4696   -0.4792    4.8072 H       1  LIG1        0.0412
      9 C           6.6392   -0.1450    6.8338 C.3     1  LIG1        0.1407
     10 C           7.9846    0.6025    6.6703 C.2     1  LIG1        0.2402
     11 C          10.2822    0.5890    5.9455 C.3     1  LIG1        0.0083
     12 H          10.9419   -0.0262    5.6159 H       1  LIG1        0.0433
     13 H          10.5926    0.9830    6.7646 H       1  LIG1        0.0433
     14 H          10.1339    1.2782    5.2937 H       1  LIG1        0.0433
     15 C          10.0977   -2.2993    5.6262 C.ar    1  LIG1       -0.0039
     16 C          11.0045   -2.4563    6.6645 C.ar    1  LIG1       -0.0528
     17 H          10.8789   -1.9906    7.4605 H       1  LIG1        0.0624
     18 C          12.0897   -3.2973    6.5276 C.ar    1  LIG1       -0.0611
     19 H          12.6929   -3.3892    7.2301 H       1  LIG1        0.0618
     20 C          12.2853   -3.9939    5.3739 C.ar    1  LIG1       -0.0617
     21 H          13.0126   -4.5680    5.2921 H       1  LIG1        0.0618
     22 C          11.4045   -3.8437    4.3326 C.ar    1  LIG1       -0.0611
     23 H          11.5378   -4.3146    3.5426 H       1  LIG1        0.0618
     24 C          10.3191   -2.9968    4.4525 C.ar    1  LIG1       -0.0528
     25 H           9.7327   -2.8944    3.7375 H       1  LIG1        0.0624
     26 C           5.1410   -1.8000    5.5710 C.ar    1  LIG1       -0.0385
     27 C           4.9327   -2.9699    6.2764 C.ar    1  LIG1       -0.0579
     28 H           5.6292   -3.3414    6.7678 H       1  LIG1        0.0620
     29 C           3.6991   -3.5940    6.2576 C.ar    1  LIG1       -0.0615
     30 H           3.5737   -4.3797    6.7388 H       1  LIG1        0.0618
     31 C           2.6637   -3.0693    5.5387 C.ar    1  LIG1       -0.0617
     32 H           1.8301   -3.4812    5.5466 H       1  LIG1        0.0618
     33 C           2.8663   -1.9271    4.8057 C.ar    1  LIG1       -0.0615
     34 H           2.1732   -1.5743    4.2949 H       1  LIG1        0.0618
     35 C           4.0907   -1.3029    4.8257 C.ar    1  LIG1       -0.0579
     36 H           4.2144   -0.5285    4.3255 H       1  LIG1        0.0620
     37 C           6.7240   -0.9471    8.0629 C.1     1  LIG1        0.0793
     38 C           5.5157    0.8723    6.9783 C.3     1  LIG1       -0.0372
     39 H           5.4572    1.4008    6.1798 H       1  LIG1        0.0250
     40 H           5.6966    1.4442    7.7279 H       1  LIG1        0.0250
     41 H           4.6846    0.4126    7.1190 H       1  LIG1        0.0250
@<TRIPOS>BOND
     1    23    22    1
     2    25    24    1
     3    34    33    1
     4    36    35    1
     5    22    24   ar
     6    22    20   ar
     7    24    15   ar
     8    33    35   ar
     9    33    31   ar
    10     8     7    1
    11    35    26   ar
    12     6     5    1
    13    21    20    1
    14    14    11    1
    15    20    18   ar
    16     5     7    1
    17     5     4    2
    18    31    32    1
    19    31    29   ar
    20    26     7    1
    21    26    27   ar
    22     7     9    1
    23    12    11    1
    24    15     4    1
    25    15    16   ar
    26     4     2    1
    27    11     2    1
    28    11    13    1
    29    39    38    1
    30     2    10   am
    31    29    27   ar
    32    29    30    1
    33    27    28    1
    34    18    16   ar
    35    18    19    1
    36    16    17    1
    37    10     9    1
    38    10     1    2
    39     9    38    1
    40     9    37    1
    41    38    41    1
    42    38    40    1
    43    37     3    3
