@<TRIPOS>MOLECULE
(S)-trans-cyclohexane-1,2-dicarboximide
 22 23 0 0 0
SMALL
GASTEIGER

@<TRIPOS>ATOM
      1 O           1.2981    3.9586    0.0556 O.2     1  LIG1       -0.2751
      2 O           0.3070    0.6765   -2.9420 O.2     1  LIG1       -0.2751
      3 C           1.3111    3.3494   -0.9941 C.2     1  LIG1        0.2230
      4 N           0.5702    2.2160   -1.2510 N.am    1  LIG1       -0.2559
      5 H          -0.0472    1.9480   -0.7046 H       1  LIG1        0.1575
      6 C           0.8949    1.6127   -2.4619 C.2     1  LIG1        0.2230
      7 C           2.3901    2.4816   -4.4473 C.3     1  LIG1       -0.0412
      8 H           1.6056    2.9869   -4.8642 H       1  LIG1        0.0273
      9 H           2.4261    1.6115   -4.9048 H       1  LIG1        0.0273
     10 C           3.7089    3.2514   -4.5860 C.3     1  LIG1       -0.0523
     11 H           4.4450    2.6859   -4.2048 H       1  LIG1        0.0265
     12 H           3.9491    3.4060   -5.5461 H       1  LIG1        0.0265
     13 C           3.7313    4.5624   -3.7933 C.3     1  LIG1       -0.0523
     14 H           2.9692    5.2005   -4.1867 H       1  LIG1        0.0265
     15 H           4.5689    4.8877   -3.8706 H       1  LIG1        0.0265
     16 C           3.3747    4.3800   -2.3079 C.3     1  LIG1       -0.0412
     17 H           4.0317    3.8488   -1.8111 H       1  LIG1        0.0273
     18 H           3.3234    5.2891   -1.8562 H       1  LIG1        0.0273
     19 C           2.0430    3.6717   -2.2695 C.3     1  LIG1        0.0470
     20 H           1.4403    4.2265   -2.7460 H       1  LIG1        0.0402
     21 C           2.1215    2.3193   -2.9673 C.3     1  LIG1        0.0470
     22 H           2.8571    1.7886   -2.6060 H       1  LIG1        0.0402
@<TRIPOS>BOND
     1    12    10    1
     2     9     7    1
     3     8     7    1
     4    10     7    1
     5    10    11    1
     6    10    13    1
     7     7    21    1
     8    14    13    1
     9    15    13    1
    10    13    16    1
    11    21    22    1
    12    21     6    1
    13    21    19    1
    14     2     6    2
    15    20    19    1
    16     6     4   am
    17    16    19    1
    18    16    18    1
    19    16    17    1
    20    19     3    1
    21     4     3   am
    22     4     5    1
    23     3     1    2
