@<TRIPOS>MOLECULE
(1R,3S,6S)-[6-tert-butyl-1-hydroxymethyl-5-methyoxy-6-methyl-7-oxa-8-oxo -4-aza-spiro[2.5]oct-4-en-8-one
 39 40 0 0 0
SMALL
GASTEIGER

@<TRIPOS>ATOM
      1 O           7.2246   14.1261    7.1268 O.3     1  LIG1       -0.4465
      2 C           8.3626   13.8249    6.4918 C.2     1  LIG1        0.3365
      3 O           9.4159   14.0194    7.0726 O.2     1  LIG1       -0.2481
      4 C           8.2650   13.2252    5.1459 C.3     1  LIG1        0.1665
      5 N           6.9822   12.8986    4.6255 N.2     1  LIG1       -0.2327
      6 C           5.9671   13.3725    5.2117 C.2     1  LIG1        0.2314
      7 O           4.7202   13.1098    4.7595 O.2     1  LIG1       -0.4802
      8 C           4.6445   12.3382    3.5475 C.3     1  LIG1        0.0802
      9 H           3.7278   12.2629    3.2734 H       1  LIG1        0.0660
     10 H           5.0057   11.4626    3.7024 H       1  LIG1        0.0660
     11 H           5.1504   12.7760    2.8583 H       1  LIG1        0.0660
     12 C           5.9207   14.2291    6.4554 C.3     1  LIG1        0.1896
     13 C           4.9447   13.6593    7.4490 C.3     1  LIG1       -0.0155
     14 H           4.0491   13.7906    7.1299 H       1  LIG1        0.0273
     15 H           5.0512   14.1030    8.2938 H       1  LIG1        0.0273
     16 H           5.1106   12.7190    7.5589 H       1  LIG1        0.0273
     17 C           5.6987   15.7468    6.1317 C.3     1  LIG1        0.0107
     18 C           4.3224   15.9712    5.4998 C.3     1  LIG1       -0.0559
     19 H           4.3208   15.6239    4.6046 H       1  LIG1        0.0236
     20 H           4.1288   16.9122    5.4797 H       1  LIG1        0.0236
     21 H           3.6538   15.5190    6.0194 H       1  LIG1        0.0236
     22 C           5.7605   16.5543    7.4311 C.3     1  LIG1       -0.0559
     23 H           5.7044   17.4914    7.2290 H       1  LIG1        0.0236
     24 H           6.5885   16.3741    7.8818 H       1  LIG1        0.0236
     25 H           5.0260   16.3057    7.9980 H       1  LIG1        0.0236
     26 C           6.7716   16.2565    5.1769 C.3     1  LIG1       -0.0559
     27 H           7.6346   16.1712    5.5904 H       1  LIG1        0.0236
     28 H           6.6048   17.1790    4.9709 H       1  LIG1        0.0236
     29 H           6.7528   15.7402    4.3684 H       1  LIG1        0.0236
     30 C           9.4200   12.3124    4.7664 C.3     1  LIG1       -0.0091
     31 H          10.1146   12.1671    5.4278 H       1  LIG1        0.0298
     32 H           9.2223   11.5447    4.2081 H       1  LIG1        0.0298
     33 C           9.3313   13.6399    4.1531 C.3     1  LIG1        0.0206
     34 H           9.9772   14.2923    4.4954 H       1  LIG1        0.0353
     35 C           8.9539   13.8249    2.6972 C.3     1  LIG1        0.0498
     36 H           8.4748   13.0473    2.3720 H       1  LIG1        0.0561
     37 H           8.3845   14.6024    2.5935 H       1  LIG1        0.0561
     38 O          10.1317   13.9936    1.9910 O.3     1  LIG1       -0.3946
     39 H           9.9682   14.0164    1.1879 H       1  LIG1        0.2094
@<TRIPOS>BOND
     1    39    38    1
     2    38    35    1
     3    36    35    1
     4    37    35    1
     5    35    33    1
     6    11     8    1
     7     9     8    1
     8     8    10    1
     9     8     7    1
    10    33    34    1
    11    33    30    1
    12    33     4    1
    13    32    30    1
    14    29    26    1
    15    19    18    1
    16     5     4    1
    17     5     6    2
    18     7     6    1
    19    30     4    1
    20    30    31    1
    21    28    26    1
    22     4     2    1
    23    26    27    1
    24    26    17    1
    25     6    12    1
    26    20    18    1
    27    18    21    1
    28    18    17    1
    29    17    12    1
    30    17    22    1
    31    12     1    1
    32    12    13    1
    33     2     3    2
    34     2     1    1
    35    14    13    1
    36    23    22    1
    37    22    24    1
    38    22    25    1
    39    13    16    1
    40    13    15    1
