@<TRIPOS>MOLECULE
(2RS,4RS)-N-Chloroacetyl-2,3,4,5-tetrahydro-2,4-diphenyl-1,5-benzothiazepine
 47 50 0 0 0
SMALL
GASTEIGER

@<TRIPOS>ATOM
      1 CL         11.3426    2.8505    4.9224 Cl      1  LIG1       -0.1156
      2 S           7.7807    1.2697    1.2164 S.3     1  LIG1       -0.1152
      3 O           8.4486    2.8143    5.2735 O.2     1  LIG1       -0.2739
      4 N           7.8024    3.5337    3.2199 N.am    1  LIG1       -0.2619
      5 C           6.0325    1.3776    1.8079 C.3     1  LIG1        0.0369
      6 C           5.6222    2.7711    2.3083 C.3     1  LIG1       -0.0135
      7 C           6.3692    3.2930    3.5339 C.3     1  LIG1        0.0574
      8 C           8.5627    5.2286    1.6205 C.ar    1  LIG1       -0.0392
      9 C           8.9693    5.5875    0.3371 C.ar    1  LIG1       -0.0599
     10 C           8.9976    4.6393   -0.6639 C.ar    1  LIG1       -0.0606
     11 C           8.5925    3.3333   -0.4105 C.ar    1  LIG1       -0.0465
     12 C           8.1892    2.9587    0.8670 C.ar    1  LIG1        0.0299
     13 C           8.1908    3.9150    1.8874 C.ar    1  LIG1        0.0503
     14 C           5.7752    0.3088    2.8469 C.ar    1  LIG1       -0.0341
     15 C           6.6264    0.0610    3.9117 C.ar    1  LIG1       -0.0575
     16 C           6.2781   -0.8468    4.9138 C.ar    1  LIG1       -0.0615
     17 C           5.0746   -1.5169    4.8493 C.ar    1  LIG1       -0.0617
     18 C           4.2193   -1.2861    3.7913 C.ar    1  LIG1       -0.0615
     19 C           4.5675   -0.3863    2.7891 C.ar    1  LIG1       -0.0575
     20 C           5.7015    4.5204    4.1266 C.ar    1  LIG1       -0.0266
     21 C           5.0867    4.4150    5.3738 C.ar    1  LIG1       -0.0568
     22 C           4.4543    5.5140    5.9451 C.ar    1  LIG1       -0.0614
     23 C           4.4358    6.7281    5.2841 C.ar    1  LIG1       -0.0617
     24 C           5.0427    6.8439    4.0444 C.ar    1  LIG1       -0.0614
     25 C           5.6521    5.7396    3.4625 C.ar    1  LIG1       -0.0568
     26 C           8.7399    3.2015    4.1525 C.2     1  LIG1        0.2350
     27 C          10.1789    3.3271    3.6864 C.3     1  LIG1        0.0994
     28 H           5.4480    1.1671    1.0248 H       1  LIG1        0.0465
     29 H           7.4589    0.5155    3.9611 H       1  LIG1        0.0621
     30 H           6.8699   -1.0024    5.6401 H       1  LIG1        0.0618
     31 H           4.8355   -2.1349    5.5302 H       1  LIG1        0.0618
     32 H           3.3886   -1.7435    3.7477 H       1  LIG1        0.0618
     33 H           3.9768   -0.2446    2.0585 H       1  LIG1        0.0621
     34 H           5.7510    3.4166    1.5691 H       1  LIG1        0.0300
     35 H           4.6549    2.7519    2.5198 H       1  LIG1        0.0300
     36 H           6.3351    2.5741    4.2282 H       1  LIG1        0.0554
     37 H           5.0998    3.5861    5.8369 H       1  LIG1        0.0621
     38 H           4.0339    5.4298    6.7926 H       1  LIG1        0.0618
     39 H           4.0089    7.4800    5.6784 H       1  LIG1        0.0618
     40 H           5.0418    7.6793    3.5918 H       1  LIG1        0.0618
     41 H           6.0400    5.8189    2.5990 H       1  LIG1        0.0621
     42 H          10.3521    4.2663    3.4244 H       1  LIG1        0.0525
     43 H          10.3092    2.7603    2.8852 H       1  LIG1        0.0525
     44 H           8.5393    5.8797    2.3115 H       1  LIG1        0.0636
     45 H           9.2267    6.4836    0.1521 H       1  LIG1        0.0618
     46 H           9.2955    4.8797   -1.5333 H       1  LIG1        0.0618
     47 H           8.5919    2.6934   -1.1129 H       1  LIG1        0.0629
@<TRIPOS>BOND
     1    46    10    1
     2    47    11    1
     3    10    11   ar
     4    10     9   ar
     5    11    12   ar
     6    45     9    1
     7     9     8   ar
     8    12     2    1
     9    12    13   ar
    10    28     5    1
    11     2     5    1
    12    34     6    1
    13     8    13   ar
    14     8    44    1
    15     5     6    1
    16     5    14    1
    17    13     4    1
    18    33    19    1
    19     6    35    1
    20     6     7    1
    21    41    25    1
    22    19    14   ar
    23    19    18   ar
    24    14    15   ar
    25    43    27    1
    26     4     7    1
    27     4    26   am
    28    42    27    1
    29    25    24   ar
    30    25    20   ar
    31     7    20    1
    32     7    36    1
    33    40    24    1
    34    27    26    1
    35    27     1    1
    36    32    18    1
    37    18    17   ar
    38    15    29    1
    39    15    16   ar
    40    24    23   ar
    41    20    21   ar
    42    26     3    2
    43    17    16   ar
    44    17    31    1
    45    16    30    1
    46    23    39    1
    47    23    22   ar
    48    21    37    1
    49    21    22   ar
    50    22    38    1
