@<TRIPOS>MOLECULE
3-methanesulfonyl-N-methyl-2-nitroaniline
 25 25 0 0 0
SMALL
GASTEIGER

@<TRIPOS>ATOM
      1 S           1.7040    7.8894    4.1849 S.O2    1  LIG1       -0.0037
      2 O           0.9939    6.8372    4.8734 O.2     1  LIG1       -0.1696
      3 O           1.0633    9.1877    4.0976 O.2     1  LIG1       -0.1696
      4 O           3.3291    9.7807    2.5222 O.2     1  LIG1       -0.1260
      5 O           2.2066   10.3696    0.7622 O.2     1  LIG1       -0.1260
      6 N           2.5839    9.5122    1.5741 N.pl3   1  LIG1        0.0601
      7 N           2.2292    8.3976   -1.0607 N.pl3   1  LIG1       -0.3451
      8 H           2.2893    9.2352   -0.9930 H       1  LIG1        0.1458
      9 C           1.9590    7.2947    2.5003 C.ar    1  LIG1        0.1198
     10 C           2.1829    8.1338    1.3756 C.ar    1  LIG1        0.1715
     11 C           2.0882    7.6421    0.0425 C.ar    1  LIG1        0.0594
     12 C           1.8791    6.2338   -0.0800 C.ar    1  LIG1       -0.0385
     13 H           1.8772    5.8522   -0.9283 H       1  LIG1        0.0637
     14 C           1.6819    5.4291    1.0061 C.ar    1  LIG1       -0.0581
     15 H           1.5438    4.5181    0.8814 H       1  LIG1        0.0619
     16 C           1.6834    5.9560    2.3121 C.ar    1  LIG1       -0.0345
     17 H           1.5010    5.4075    3.0399 H       1  LIG1        0.0637
     18 C           3.2784    8.0306    4.9697 C.3     1  LIG1        0.0597
     19 H           3.7529    7.2005    4.8864 H       1  LIG1        0.0468
     20 H           3.1554    8.2371    5.8997 H       1  LIG1        0.0468
     21 H           3.7834    8.7316    4.5503 H       1  LIG1        0.0468
     22 C           2.2272    7.8495   -2.4115 C.3     1  LIG1       -0.0024
     23 H           2.9021    7.1700   -2.4819 H       1  LIG1        0.0425
     24 H           2.4114    8.5498   -3.0411 H       1  LIG1        0.0425
     25 H           1.3675    7.4675   -2.5998 H       1  LIG1        0.0425
@<TRIPOS>BOND
     1    24    22    1
     2    25    22    1
     3    23    22    1
     4    22     7    1
     5     7     8    1
     6     7    11    1
     7    13    12    1
     8    12    11   ar
     9    12    14   ar
    10    11    10   ar
    11     5     6    2
    12    15    14    1
    13    14    16   ar
    14    10     6    1
    15    10     9   ar
    16     6     4    2
    17    16     9   ar
    18    16    17    1
    19     9     1    1
    20     3     1    2
    21     1     2    2
    22     1    18    1
    23    21    18    1
    24    19    18    1
    25    18    20    1
