@<TRIPOS>MOLECULE
3-Benzyloxy-16-[(N-methyl-N-phenylamino)methylidene]oestra-1,3,5(10)-trien- 17-one
 71 76 0 0 0
SMALL
GASTEIGER

@<TRIPOS>ATOM
      1 O           0.2349    0.9838   35.0663 O.3     1  LIG1       -0.4874
      2 O           4.0369   -0.0207   24.9380 O.2     1  LIG1       -0.2918
      3 N           1.2610    2.2945   22.7779 N.pl3   1  LIG1       -0.3091
      4 C           2.2669    0.2387   32.1621 C.ar    1  LIG1       -0.0546
      5 C           1.8026    0.2996   33.4605 C.ar    1  LIG1       -0.0196
      6 C           0.6244    0.9837   33.7416 C.ar    1  LIG1        0.1213
      7 C          -0.0730    1.5736   32.7027 C.ar    1  LIG1       -0.0165
      8 C           0.4017    1.5082   31.3933 C.ar    1  LIG1       -0.0405
      9 C          -0.4434    2.1625   30.3182 C.3     1  LIG1       -0.0270
     10 C           0.2809    2.3438   28.9882 C.3     1  LIG1       -0.0454
     11 C           1.0721    1.1019   28.6252 C.3     1  LIG1       -0.0299
     12 C           2.1559    0.8471   29.6872 C.3     1  LIG1       -0.0124
     13 C           1.5916    0.8390   31.0984 C.ar    1  LIG1       -0.0406
     14 C           3.0298   -0.3776   29.3391 C.3     1  LIG1       -0.0450
     15 C           3.6254   -0.2938   27.9173 C.3     1  LIG1       -0.0398
     16 C           2.5453   -0.0321   26.8816 C.3     1  LIG1        0.0339
     17 C           1.7504    1.2224   27.2733 C.3     1  LIG1       -0.0211
     18 C           0.9550    1.5805   26.0053 C.3     1  LIG1       -0.0192
     19 C           1.9522    1.2362   24.9104 C.2     1  LIG1        0.0098
     20 C           3.0004    0.3581   25.4782 C.2     1  LIG1        0.1665
     21 C           1.6541   -1.2787   26.6980 C.3     1  LIG1       -0.0522
     22 C          -1.0102    1.6172   35.3860 C.3     1  LIG1        0.1146
     23 C          -1.3364    1.3005   36.8266 C.ar    1  LIG1       -0.0104
     24 C          -0.4563    1.6287   37.8333 C.ar    1  LIG1       -0.0554
     25 C          -0.7575    1.3441   39.1622 C.ar    1  LIG1       -0.0614
     26 C          -1.9461    0.7220   39.4865 C.ar    1  LIG1       -0.0617
     27 C          -2.8428    0.3948   38.4713 C.ar    1  LIG1       -0.0614
     28 C          -2.5355    0.6864   37.1566 C.ar    1  LIG1       -0.0554
     29 C           2.0755    1.5817   23.6155 C.2     1  LIG1        0.0029
     30 C          -0.0730    2.7203   23.2284 C.3     1  LIG1        0.0052
     31 C           1.6468    2.6365   21.4437 C.ar    1  LIG1        0.0333
     32 C           0.8967    3.5398   20.7060 C.ar    1  LIG1       -0.0404
     33 C           1.2408    3.8187   19.3874 C.ar    1  LIG1       -0.0600
     34 C           2.3276    3.2219   18.7944 C.ar    1  LIG1       -0.0616
     35 C           3.0814    2.3312   19.5324 C.ar    1  LIG1       -0.0600
     36 C           2.7569    2.0488   20.8482 C.ar    1  LIG1       -0.0404
     37 H           3.0771   -0.2261   31.9874 H       1  LIG1        0.0622
     38 H           2.2840   -0.1263   34.1603 H       1  LIG1        0.0654
     39 H          -0.8869    2.0293   32.8842 H       1  LIG1        0.0657
     40 H          -1.2113    1.6230   30.1689 H       1  LIG1        0.0313
     41 H          -0.7145    3.0187   30.6298 H       1  LIG1        0.0313
     42 H          -0.3600    2.5137   28.3080 H       1  LIG1        0.0271
     43 H           0.8752    3.0807   29.0559 H       1  LIG1        0.0271
     44 H           0.4815    0.3581   28.6057 H       1  LIG1        0.0310
     45 H           2.7361    1.5989   29.6479 H       1  LIG1        0.0352
     46 H           3.7438   -0.4304   29.9633 H       1  LIG1        0.0271
     47 H           2.4975   -1.1616   29.3997 H       1  LIG1        0.0271
     48 H           4.2583    0.4144   27.8897 H       1  LIG1        0.0275
     49 H           4.0590   -1.1145   27.7125 H       1  LIG1        0.0275
     50 H           2.3957    1.9122   27.3722 H       1  LIG1        0.0316
     51 H           0.1650    1.0583   25.9330 H       1  LIG1        0.0318
     52 H           0.7274    2.5022   25.9897 H       1  LIG1        0.0318
     53 H           0.9022   -1.0583   26.1599 H       1  LIG1        0.0239
     54 H           1.3591   -1.5794   27.5494 H       1  LIG1        0.0239
     55 H           2.1528   -1.9685   26.2733 H       1  LIG1        0.0239
     56 H          -0.9316    2.5573   35.2733 H       1  LIG1        0.0748
     57 H          -1.6965    1.2867   34.8196 H       1  LIG1        0.0748
     58 H           0.3662    2.0511   37.6199 H       1  LIG1        0.0621
     59 H          -0.1435    1.5805   39.8495 H       1  LIG1        0.0618
     60 H          -2.1491    0.5200   40.3919 H       1  LIG1        0.0618
     61 H          -3.6665   -0.0287   38.6833 H       1  LIG1        0.0618
     62 H          -3.1519    0.4626   36.4714 H       1  LIG1        0.0621
     63 H           2.8759    1.2752   23.2071 H       1  LIG1        0.0787
     64 H          -0.0613    3.6500   23.4234 H       1  LIG1        0.0432
     65 H          -0.7084    2.5481   22.5443 H       1  LIG1        0.0432
     66 H          -0.3110    2.2348   24.0118 H       1  LIG1        0.0432
     67 H           0.1478    3.9702   21.1016 H       1  LIG1        0.0636
     68 H           0.7151    4.4317   18.8862 H       1  LIG1        0.0618
     69 H           2.5545    3.4170   17.8936 H       1  LIG1        0.0618
     70 H           3.8333    1.9088   19.1343 H       1  LIG1        0.0618
     71 H           3.2966    1.4474   21.3497 H       1  LIG1        0.0636
@<TRIPOS>BOND
     1    69    34    1
     2    34    33   ar
     3    34    35   ar
     4    68    33    1
     5    70    35    1
     6    33    32   ar
     7    35    36   ar
     8    32    67    1
     9    32    31   ar
    10    36    71    1
    11    36    31   ar
    12    31     3    1
    13    65    30    1
    14     3    30    1
    15     3    29    1
    16    63    29    1
    17    30    64    1
    18    30    66    1
    19    29    19    2
    20    19    20    1
    21    19    18    1
    22     2    20    2
    23    20    16    1
    24    51    18    1
    25    52    18    1
    26    18    17    1
    27    53    21    1
    28    55    21    1
    29    21    16    1
    30    21    54    1
    31    16    17    1
    32    16    15    1
    33    17    50    1
    34    17    11    1
    35    49    15    1
    36    48    15    1
    37    15    14    1
    38    42    10    1
    39    44    11    1
    40    11    10    1
    41    11    12    1
    42    10    43    1
    43    10     9    1
    44    14    47    1
    45    14    12    1
    46    14    46    1
    47    45    12    1
    48    12    13    1
    49    40     9    1
    50     9    41    1
    51     9     8    1
    52    13     8   ar
    53    13     4   ar
    54     8     7   ar
    55    37     4    1
    56     4     5   ar
    57     7    39    1
    58     7     6   ar
    59     5     6   ar
    60     5    38    1
    61     6     1    1
    62    57    22    1
    63     1    22    1
    64    56    22    1
    65    22    23    1
    66    62    28    1
    67    23    28   ar
    68    23    24   ar
    69    28    27   ar
    70    58    24    1
    71    24    25   ar
    72    27    61    1
    73    27    26   ar
    74    25    26   ar
    75    25    59    1
    76    26    60    1
