@<TRIPOS>MOLECULE
2-(2-Methoxyethoxy)ethyl 4-[5-cyano-1-ethyl-4-methyl-2,6-dioxo-1,2,3,6-tetrahydropyridin-3- yl)diazenyl]benzoate
 55 56 0 0 0
SMALL
GASTEIGER

@<TRIPOS>ATOM
      1 C           2.1172   11.8370    0.5226 C.2     1  LIG1        0.2703
      2 C           3.3801   11.4863    1.1897 C.2     1  LIG1        0.1335
      3 C           4.2867   12.5150    1.6327 C.2     1  LIG1       -0.0123
      4 C           3.9480   13.8100    1.3940 C.3     1  LIG1        0.1866
      5 C           2.7325   14.2012    0.6814 C.2     1  LIG1        0.2487
      6 C           5.5332   12.1288    2.3630 C.3     1  LIG1       -0.0394
      7 H           6.0343   12.9355    2.6035 H       1  LIG1        0.0276
      8 H           6.0866   11.5599    1.7870 H       1  LIG1        0.0276
      9 H           5.2961   11.6362    3.1773 H       1  LIG1        0.0276
     10 C           4.7805   14.9061    1.8202 C.1     1  LIG1        0.0856
     11 C           0.6354   13.5796   -0.3988 C.3     1  LIG1        0.0199
     12 H           0.2785   12.8183   -0.9201 H       1  LIG1        0.0467
     13 H           0.8249   14.3199   -1.0291 H       1  LIG1        0.0467
     14 C          -0.3958   14.0258    0.5997 C.3     1  LIG1       -0.0488
     15 H          -0.6368   13.2727    1.1804 H       1  LIG1        0.0245
     16 H          -1.1936   14.3412    0.1268 H       1  LIG1        0.0245
     17 H          -0.0294   14.7530    1.1450 H       1  LIG1        0.0245
     18 C           3.3885    7.9338    1.4867 C.ar    1  LIG1        0.0462
     19 C           2.5578    6.8758    1.1338 C.ar    1  LIG1       -0.0385
     20 H           1.7315    7.0375    0.6938 H       1  LIG1        0.0637
     21 C           2.9519    5.5796    1.4342 C.ar    1  LIG1       -0.0460
     22 H           2.3919    4.8508    1.1927 H       1  LIG1        0.0626
     23 C           4.1582    5.3322    2.0847 C.ar    1  LIG1        0.0591
     24 C           4.9584    6.4127    2.4545 C.ar    1  LIG1       -0.0460
     25 H           5.7728    6.2547    2.9170 H       1  LIG1        0.0626
     26 C           4.5864    7.7096    2.1594 C.ar    1  LIG1       -0.0385
     27 H           5.1399    8.4396    2.4126 H       1  LIG1        0.0637
     28 C           4.6211    3.9493    2.3916 C.2     1  LIG1        0.3393
     29 C           4.2033    1.6409    1.9948 C.3     1  LIG1        0.1160
     30 H           4.2662    1.4536    2.9647 H       1  LIG1        0.0721
     31 H           5.0738    1.4270    1.5757 H       1  LIG1        0.0721
     32 C           3.1130    0.8232    1.3771 C.3     1  LIG1        0.0819
     33 H           3.0077    1.0649    0.4225 H       1  LIG1        0.0594
     34 H           3.3389   -0.1384    1.4326 H       1  LIG1        0.0594
     35 C           0.7958    0.4251    1.4886 C.3     1  LIG1        0.0711
     36 H           0.9710   -0.5484    1.4408 H       1  LIG1        0.0583
     37 H           0.6646    0.7597    0.5670 H       1  LIG1        0.0583
     38 C          -0.4369    0.6766    2.2970 C.3     1  LIG1        0.0706
     39 H          -0.5505    1.6489    2.4399 H       1  LIG1        0.0582
     40 H          -1.2310    0.3408    1.8101 H       1  LIG1        0.0582
     41 C          -1.4473    0.2682    4.3645 C.3     1  LIG1        0.0365
     42 H          -1.5460    1.2336    4.5036 H       1  LIG1        0.0524
     43 H          -1.3177   -0.1739    5.2287 H       1  LIG1        0.0524
     44 H          -2.2546   -0.0834    3.9352 H       1  LIG1        0.0524
     45 N           2.9818    9.2330    1.1463 N.pl3   1  LIG1       -0.2460
     46 H           2.2205    9.3644    0.7251 H       1  LIG1        0.1719
     47 N           3.7445   10.2470    1.4604 N.pl3   1  LIG1       -0.1464
     48 N           1.8847   13.1738    0.2692 N.am    1  LIG1       -0.2357
     49 N           5.4372   15.7865    2.1491 N.1     1  LIG1       -0.1951
     50 O           2.4564   15.3667    0.4452 O.2     1  LIG1       -0.2730
     51 O           1.2946   10.9813    0.1870 O.2     1  LIG1       -0.2681
     52 O           5.5591    3.6764    3.1023 O.2     1  LIG1       -0.2450
     53 O           3.8663    3.0354    1.7721 O.3     1  LIG1       -0.4588
     54 O           1.9030    1.0809    2.0818 O.3     1  LIG1       -0.3742
     55 O          -0.3301    0.0229    3.5381 O.3     1  LIG1       -0.3807
@<TRIPOS>BOND
     1    13    11    1
     2    12    11    1
     3    11    48    1
     4    11    14    1
     5    16    14    1
     6    51     1    2
     7    48     1   am
     8    48     5   am
     9    33    32    1
    10    50     5    2
    11     1     2    1
    12    37    35    1
    13    14    17    1
    14    14    15    1
    15     5     4    1
    16    20    19    1
    17    46    45    1
    18    19    21   ar
    19    19    18   ar
    20    45    47    1
    21    45    18    1
    22     2    47    1
    23     2     3    2
    24    22    21    1
    25    32    34    1
    26    32    29    1
    27    32    54    1
    28     4     3    1
    29     4    10    1
    30    21    23   ar
    31    36    35    1
    32    18    26   ar
    33    35    54    1
    34    35    38    1
    35    31    29    1
    36     3     6    1
    37    53    29    1
    38    53    28    1
    39     8     6    1
    40    40    38    1
    41    10    49    3
    42    29    30    1
    43    23    28    1
    44    23    24   ar
    45    26    27    1
    46    26    24   ar
    47    38    39    1
    48    38    55    1
    49     6     7    1
    50     6     9    1
    51    28    52    2
    52    24    25    1
    53    55    41    1
    54    44    41    1
    55    41    42    1
    56    41    43    1
