@<TRIPOS>MOLECULE
4-Nitrophthalimide
 18 19 0 0 0
SMALL
GASTEIGER

@<TRIPOS>ATOM
      1 N           4.5296    2.5821   17.5704 N.am    1  LIG1       -0.2483
      2 C           4.4993    3.6257   16.6689 C.2     1  LIG1        0.2512
      3 O           5.2285    4.5887   16.6765 O.2     1  LIG1       -0.2698
      4 C           3.5273    1.6430   17.3412 C.2     1  LIG1        0.2513
      5 O           3.3276    0.6442   17.9926 O.2     1  LIG1       -0.2698
      6 C           2.8119    2.1225   16.1210 C.ar    1  LIG1        0.0513
      7 C           1.7453    1.5589   15.4334 C.ar    1  LIG1       -0.0186
      8 C           1.3363    2.2850   14.3153 C.ar    1  LIG1        0.1269
      9 N           0.2215    1.7277   13.5156 N.pl3   1  LIG1        0.0564
     10 O          -0.1737    0.6011   13.7931 O.2     1  LIG1       -0.1261
     11 O          -0.2555    2.4208   12.6246 O.2     1  LIG1       -0.1261
     12 C           1.8813    3.4712   13.9025 C.ar    1  LIG1       -0.0307
     13 C           2.9457    4.0172   14.6103 C.ar    1  LIG1       -0.0467
     14 C           3.3865    3.3173   15.7233 C.ar    1  LIG1        0.0493
     15 H           5.0846    2.4139   18.2817 H       1  LIG1        0.1581
     16 H           1.3390    0.7647   15.6964 H       1  LIG1        0.0648
     17 H           1.5424    3.9081   13.1555 H       1  LIG1        0.0640
     18 H           3.3441    4.8160   14.3483 H       1  LIG1        0.0626
@<TRIPOS>BOND
     1    11     9    2
     2    17    12    1
     3     9    10    2
     4     9     8    1
     5    12     8   ar
     6    12    13   ar
     7     8     7   ar
     8    18    13    1
     9    13    14   ar
    10     7    16    1
    11     7     6   ar
    12    14     6   ar
    13    14     2    1
    14     6     4    1
    15     2     3    2
    16     2     1   am
    17     4     1   am
    18     4     5    2
    19     1    15    1
