@<TRIPOS>MOLECULE
1-(2-Iodophenyl)-4-(4-nitrophenyl)-2,3-diaza-1,3-butadiene
 30 31 0 0 0
SMALL
GASTEIGER

@<TRIPOS>ATOM
      1 C          10.1278    4.0821    3.2727 C.ar    1  LIG1       -0.0254
      2 C           9.0536    3.9879    2.3910 C.ar    1  LIG1       -0.0548
      3 C           8.4119    5.1278    1.9435 C.ar    1  LIG1       -0.0312
      4 C           8.8614    6.3451    2.4037 C.ar    1  LIG1        0.1262
      5 N           8.1444    7.5633    1.9759 N.pl3   1  LIG1        0.0564
      6 O           7.1125    7.4311    1.3401 O.2     1  LIG1       -0.1261
      7 O           8.6064    8.6446    2.2952 O.2     1  LIG1       -0.1261
      8 C           9.9359    6.4813    3.2446 C.ar    1  LIG1       -0.0312
      9 C          10.5736    5.3284    3.6772 C.ar    1  LIG1       -0.0548
     10 C          10.7466    2.8447    3.7638 C.3     1  LIG1        0.0911
     11 N          11.6724    2.8616    4.6366 N.3     1  LIG1       -0.1328
     12 N          12.0762    1.5565    4.9737 N.3     1  LIG1       -0.1327
     13 C          13.6404    0.2675    6.2156 C.ar    1  LIG1       -0.0124
     14 C          14.8351    0.1837    6.9342 C.ar    1  LIG1        0.0182
     15 I          16.0493    1.8625    7.3120 I       1  LIG1       -0.0435
     16 C          15.2978   -1.0417    7.3906 C.ar    1  LIG1       -0.0483
     17 C          14.5913   -2.1913    7.1342 C.ar    1  LIG1       -0.0608
     18 C          13.4154   -2.1333    6.4241 C.ar    1  LIG1       -0.0614
     19 C          12.9404   -0.9184    5.9802 C.ar    1  LIG1       -0.0559
     20 C          13.0952    1.5379    5.7245 C.3     1  LIG1        0.0921
     21 H           8.7666    3.1524    2.1011 H       1  LIG1        0.0621
     22 H           7.6978    5.0747    1.3495 H       1  LIG1        0.0640
     23 H          10.2288    7.3216    3.5165 H       1  LIG1        0.0640
     24 H          11.3069    5.3929    4.2449 H       1  LIG1        0.0621
     25 H          10.4533    2.0278    3.4286 H       1  LIG1        0.0562
     26 H          16.0921   -1.0852    7.8736 H       1  LIG1        0.0628
     27 H          14.9083   -3.0098    7.4405 H       1  LIG1        0.0618
     28 H          12.9409   -2.9124    6.2447 H       1  LIG1        0.0618
     29 H          12.1352   -0.8878    5.5139 H       1  LIG1        0.0621
     30 H          13.5010    2.3379    5.9678 H       1  LIG1        0.0562
@<TRIPOS>BOND
     1     6     5    2
     2    22     3    1
     3     3     2   ar
     4     3     4   ar
     5     5     7    2
     6     5     4    1
     7    21     2    1
     8     2     1   ar
     9     4     8   ar
    10     8    23    1
    11     8     9   ar
    12     1     9   ar
    13     1    10    1
    14    25    10    1
    15     9    24    1
    16    10    11    1
    17    11    12    1
    18    12    20    1
    19    29    19    1
    20    20    30    1
    21    20    13    1
    22    19    13   ar
    23    19    18   ar
    24    13    14   ar
    25    28    18    1
    26    18    17   ar
    27    14    15    1
    28    14    16   ar
    29    17    16   ar
    30    17    27    1
    31    16    26    1
