@<TRIPOS>MOLECULE
4,4'-biphenyldicarboxylic acid--2,5-bis(4-pyridyl)-1,3,4-oxadiazole (1/1)
 27 27 0 0 0
SMALL
GASTEIGER

@<TRIPOS>ATOM
      1 O          -0.8735    1.7875    3.7434 O.2     1  LIG1       -0.2667
      2 O           6.2059    3.3693    1.2898 O.3     2  LIG2       -0.4771
      3 H           5.4825    3.0854    1.5528 H       2  LIG2        0.2954
      4 O           5.2649    5.3351    1.7272 O.2     2  LIG2       -0.2451
      5 N           3.8853    2.4385    2.1797 N.ar    1  LIG1       -0.2632
      6 N          -0.2132   -0.2992    3.5197 N.am    1  LIG1       -0.0837
      7 C           1.6558    2.8363    2.9260 C.ar    1  LIG1       -0.0314
      8 H           0.9927    3.4483    3.1535 H       1  LIG1        0.0640
      9 C           2.9016    3.2621    2.5270 C.ar    1  LIG1        0.0283
     10 H           3.0640    4.1774    2.4991 H       1  LIG1        0.0830
     11 C           3.6416    1.1439    2.2347 C.ar    1  LIG1        0.0283
     12 H           4.3197    0.5559    1.9900 H       1  LIG1        0.0830
     13 C           2.4315    0.6189    2.6372 C.ar    1  LIG1       -0.0314
     14 H           2.3044   -0.3012    2.6758 H       1  LIG1        0.0640
     15 C           1.4136    1.4856    2.9811 C.ar    1  LIG1        0.0429
     16 C           0.1274    0.9399    3.4056 C.2     1  LIG1        0.2830
     17 C           6.2118    4.6771    1.3559 C.2     2  LIG2        0.3368
     18 C           7.5030    5.3021    0.9537 C.ar    2  LIG2        0.0589
     19 C           7.6956    6.6494    1.1169 C.ar    2  LIG2       -0.0472
     20 H           7.0108    7.1704    1.4689 H       2  LIG2        0.0626
     21 C           8.8865    7.2423    0.7683 C.ar    2  LIG2       -0.0533
     22 H           8.9950    8.1542    0.9164 H       2  LIG2        0.0624
     23 C           9.9302    6.5235    0.2032 C.ar    2  LIG2       -0.0178
     24 C           9.7168    5.1666    0.0428 C.ar    2  LIG2       -0.0533
     25 H          10.3923    4.6436   -0.3264 H       2  LIG2        0.0624
     26 C           8.5370    4.5676    0.4127 C.ar    2  LIG2       -0.0472
     27 H           8.4339    3.6502    0.2965 H       2  LIG2        0.0626
@<TRIPOS>BOND
     1    25    24    1
     2    24    23   ar
     3    24    26   ar
     4    23    21   ar
     5    27    26    1
     6    26    18   ar
     7    21    22    1
     8    21    19   ar
     9    18    19   ar
    10    18    17    1
    11    19    20    1
    12     2    17    1
    13     2     3    1
    14    17     4    2
    15    12    11    1
    16     5    11   ar
    17     5     9   ar
    18    11    13   ar
    19    10     9    1
    20     9     7   ar
    21    13    14    1
    22    13    15   ar
    23     7    15   ar
    24     7     8    1
    25    15    16    1
    26    16     6   am
    27    16     1    2
