@<TRIPOS>MOLECULE
2-amino-4,6-dimethylpyrimidinium hydrogen sulfate
 25 24 0 0 0
SMALL
GASTEIGER

@<TRIPOS>ATOM
      1 S           7.2242   -1.0842    6.5183 S.3     1  LIG1       -0.0033
      2 O           7.3219   -2.6328    6.6813 O.3     1  LIG1       -0.2702
      3 H           6.9754   -3.0258    6.0458 H       1  LIG1        0.2427
      4 O           8.0179   -0.5662    7.6117 O.3     1  LIG1       -0.2683
      5 O           7.7792   -0.7735    5.2043 O.2     1  LIG1       -0.3454
      6 O           5.8164   -0.7114    6.6118 O.2     1  LIG1       -0.3454
      7 N           5.0708    1.7310    7.6127 N.pl3   2  LIG2       -0.2258
      8 H           5.3610    1.0086    7.2598 H       2  LIG2        0.2454
      9 N           6.8831    1.7079    9.0505 N.pl3   2  LIG2       -0.2514
     10 H           7.3521    2.1315    9.6070 H       2  LIG2        0.2412
     11 H           7.1950    0.9952    8.6536 H       2  LIG2        0.2412
     12 N           5.3945    3.4672    9.1772 N.2     2  LIG2       -0.0821
     13 C           5.7909    2.3057    8.6114 C.cat   2  LIG2        0.3682
     14 C           4.2814    4.0337    8.7085 C.2     2  LIG2        0.1154
     15 C           3.5065    3.4649    7.6890 C.2     2  LIG2       -0.0055
     16 H           2.6980    3.8730    7.3669 H       2  LIG2        0.0640
     17 C           3.9264    2.2882    7.1277 C.3     2  LIG2        0.1363
     18 C           3.8914    5.3341    9.3325 C.3     2  LIG2       -0.0067
     19 H           3.1186    5.5876    9.0495 H       2  LIG2        0.0306
     20 H           3.9418    5.2783   10.2716 H       2  LIG2        0.0306
     21 H           4.5021    5.9642    9.1404 H       2  LIG2        0.0306
     22 C           3.2304    1.5539    6.0375 C.3     2  LIG2       -0.0227
     23 H           2.5091    2.0374    5.7044 H       2  LIG2        0.0268
     24 H           3.7964    1.3784    5.3529 H       2  LIG2        0.0268
     25 H           2.9487    0.7060    6.3508 H       2  LIG2        0.0268
@<TRIPOS>BOND
     1     5     1    2
     2    24    22    1
     3    23    22    1
     4    22    25    1
     5    22    17    1
     6     3     2    1
     7     1     6    2
     8     1     2    1
     9     1     4    1
    10    17     7    1
    11    17    15    1
    12     8     7    1
    13    16    15    1
    14     7    13    1
    15    15    14    2
    16    13     9    1
    17    13    12    2
    18    11     9    1
    19    14    12    1
    20    14    18    1
    21    19    18    1
    22     9    10    1
    23    21    18    1
    24    18    20    1
