@<TRIPOS>MOLECULE
2-Amino-2-thiazolium 2-naphthoxyacetate
 37 38 0 0 0
SMALL
GASTEIGER

@<TRIPOS>ATOM
      1 S          -1.7270   -3.5787    1.6320 S.3     1  LIG1       -0.1183
      2 C          -0.3458   -2.5120    1.5962 C.3     1  LIG1        0.1582
      3 N           0.8557   -2.9235    1.8808 N.3     1  LIG1       -0.3011
      4 H           1.5286   -2.3559    1.8744 H       1  LIG1        0.1208
      5 H           0.9953   -3.7695    2.0798 H       1  LIG1        0.1208
      6 N          -0.6573   -1.2633    1.2855 N.3     1  LIG1       -0.2863
      7 H          -0.0967   -0.6180    1.4295 H       1  LIG1        0.1246
      8 C          -2.0945   -0.9805    1.2497 C.3     1  LIG1        0.0075
      9 H          -2.2939   -0.2809    0.5792 H       1  LIG1        0.0433
     10 H          -2.4088   -0.6689    2.1351 H       1  LIG1        0.0433
     11 C          -2.7703   -2.2915    0.8725 C.3     1  LIG1        0.0094
     12 H          -2.8037   -2.4005   -0.1106 H       1  LIG1        0.0390
     13 H          -3.6919   -2.3285    1.2321 H       1  LIG1        0.0390
     14 C           2.1136    1.9271    5.0512 C.ar    2  LIG2       -0.0122
     15 H           1.8607    1.0614    4.7519 H       2  LIG2        0.0660
     16 C           2.9181    2.7120    4.2764 C.ar    2  LIG2        0.1219
     17 C           3.3330    3.9900    4.7148 C.ar    2  LIG2       -0.0193
     18 H           3.9112    4.5117    4.1701 H       2  LIG2        0.0654
     19 C           2.9062    4.4780    5.9158 C.ar    2  LIG2       -0.0506
     20 H           3.1882    5.3393    6.1998 H       2  LIG2        0.0625
     21 C           1.5360    4.2047    7.9787 C.ar    2  LIG2       -0.0540
     22 H           1.8037    5.0634    8.2849 H       2  LIG2        0.0624
     23 C           0.6698    3.4606    8.7259 C.ar    2  LIG2       -0.0612
     24 H           0.3182    3.8129    9.5354 H       2  LIG2        0.0618
     25 C           0.2922    2.1648    8.2965 C.ar    2  LIG2       -0.0612
     26 H          -0.3038    1.6487    8.8272 H       2  LIG2        0.0618
     27 C           0.7771    1.6494    7.1294 C.ar    2  LIG2       -0.0539
     28 H           0.5271    0.7728    6.8633 H       2  LIG2        0.0624
     29 C           1.6536    2.4126    6.3094 C.ar    2  LIG2       -0.0144
     30 C           2.0427    3.7097    6.7456 C.ar    2  LIG2       -0.0177
     31 O           3.3706    2.3623    3.0165 O.3     2  LIG2       -0.4806
     32 C           3.5977    0.9824    2.7482 C.3     2  LIG2        0.1900
     33 H           3.8486    0.5428    3.5988 H       2  LIG2        0.0817
     34 H           4.3765    0.9129    2.1403 H       2  LIG2        0.0817
     35 C           2.4434    0.1879    2.1287 C.2     2  LIG2        0.3927
     36 O           1.2957    0.7001    2.0403 O.co2   2  LIG2       -0.2425
     37 O           2.7783   -0.9562    1.7460 O.co2   2  LIG2       -0.2425
@<TRIPOS>BOND
     1    12    11    1
     2     9     8    1
     3    11    13    1
     4    11     8    1
     5    11     1    1
     6     8     6    1
     7     8    10    1
     8     6     7    1
     9     6     2    1
    10     2     1    1
    11     2     3    1
    12    37    35   ar
    13     4     3    1
    14     3     5    1
    15    36    35   ar
    16    35    32    1
    17    34    32    1
    18    32    31    1
    19    32    33    1
    20    31    16    1
    21    18    17    1
    22    16    17   ar
    23    16    14   ar
    24    17    19   ar
    25    15    14    1
    26    14    29   ar
    27    19    20    1
    28    19    30   ar
    29    29    30   ar
    30    29    27   ar
    31    30    21   ar
    32    28    27    1
    33    27    25   ar
    34    21    22    1
    35    21    23   ar
    36    25    23   ar
    37    25    26    1
    38    23    24    1
