@<TRIPOS>MOLECULE
Benzyl 3,5-dinitrobenzoate?
 32 33 0 0 0
SMALL
GASTEIGER

@<TRIPOS>ATOM
      1 O          10.2441    9.1971    1.1665 O.2     1  LIG1       -0.2449
      2 O          10.9963    8.5091    3.1788 O.3     1  LIG1       -0.4564
      3 O          15.5374    6.8538    3.5496 O.2     1  LIG1       -0.1261
      4 O          17.0599    7.7300    2.2871 O.2     1  LIG1       -0.1261
      5 O          15.7866    9.9851   -1.7352 O.2     1  LIG1       -0.1261
      6 O          13.7881   10.8042   -1.9218 O.2     1  LIG1       -0.1261
      7 N          15.8944    7.5411    2.6035 N.pl3   1  LIG1        0.0565
      8 N          14.6387   10.1432   -1.3331 N.pl3   1  LIG1        0.0565
      9 C          12.5796    8.8419    1.4853 C.ar    1  LIG1        0.0633
     10 C          13.5449    8.1942    2.2484 C.ar    1  LIG1       -0.0174
     11 C          14.8560    8.2101    1.7986 C.ar    1  LIG1        0.1291
     12 C          15.2424    8.8469    0.6418 C.ar    1  LIG1       -0.0012
     13 C          14.2500    9.4759   -0.0815 C.ar    1  LIG1        0.1291
     14 C          12.9233    9.4923    0.3037 C.ar    1  LIG1       -0.0174
     15 C          11.1414    8.8676    1.9013 C.2     1  LIG1        0.3396
     16 C           9.6339    8.5598    3.7259 C.3     1  LIG1        0.1178
     17 C           8.9547    7.2227    3.6099 C.ar    1  LIG1       -0.0103
     18 C           9.0688    6.2981    4.6430 C.ar    1  LIG1       -0.0554
     19 C           8.4405    5.0650    4.5506 C.ar    1  LIG1       -0.0614
     20 C           7.6981    4.7497    3.4240 C.ar    1  LIG1       -0.0617
     21 C           7.5914    5.6562    2.3849 C.ar    1  LIG1       -0.0614
     22 C           8.2155    6.8928    2.4779 C.ar    1  LIG1       -0.0554
     23 H          13.3126    7.7532    3.0569 H       1  LIG1        0.0648
     24 H          16.1486    8.8542    0.3550 H       1  LIG1        0.0663
     25 H          12.2658    9.9344   -0.2216 H       1  LIG1        0.0648
     26 H           9.1065    9.2400    3.2356 H       1  LIG1        0.0749
     27 H           9.6717    8.8292    4.6780 H       1  LIG1        0.0749
     28 H           9.5799    6.5124    5.4146 H       1  LIG1        0.0621
     29 H           8.5185    4.4375    5.2594 H       1  LIG1        0.0618
     30 H           7.2610    3.9079    3.3648 H       1  LIG1        0.0618
     31 H           7.0921    5.4322    1.6084 H       1  LIG1        0.0618
     32 H           8.1369    7.5155    1.7654 H       1  LIG1        0.0621
@<TRIPOS>BOND
     1     6     8    2
     2     5     8    2
     3     8    13    1
     4    25    14    1
     5    13    14   ar
     6    13    12   ar
     7    14     9   ar
     8    24    12    1
     9    12    11   ar
    10     1    15    2
    11     9    15    1
    12     9    10   ar
    13    31    21    1
    14    32    22    1
    15    11    10   ar
    16    11     7    1
    17    15     2    1
    18    10    23    1
    19     4     7    2
    20    21    22   ar
    21    21    20   ar
    22    22    17   ar
    23     7     3    2
    24     2    16    1
    25    26    16    1
    26    30    20    1
    27    20    19   ar
    28    17    16    1
    29    17    18   ar
    30    16    27    1
    31    19    18   ar
    32    19    29    1
    33    18    28    1
