@<TRIPOS>MOLECULE
9-(2-chloroethylamino)acridine monohydrate
 34 35 0 0 0
SMALL
GASTEIGER

@<TRIPOS>ATOM
      1 C           2.8808    2.2048    7.1720 C.ar    1  LIG1       -0.0508
      2 H           2.9577    2.1867    6.2425 H       1  LIG1        0.0625
      3 C           2.9390    1.0220    7.8329 C.ar    1  LIG1       -0.0610
      4 H           3.0775    0.2266    7.3536 H       1  LIG1        0.0618
      5 C           2.8838    0.9891    9.2321 C.ar    1  LIG1       -0.0597
      6 H           2.9248    0.1360    9.7079 H       1  LIG1        0.0618
      7 C           2.7979    2.1402    9.9318 C.ar    1  LIG1       -0.0357
      8 H           2.7786    2.1414   10.9066 H       1  LIG1        0.0639
      9 C           2.6801    6.8501   10.2942 C.ar    1  LIG1       -0.0357
     10 H           2.6884    6.6960   11.2434 H       1  LIG1        0.0639
     11 C           2.6570    8.0964    9.7652 C.ar    1  LIG1       -0.0597
     12 H           2.6374    8.8261   10.3188 H       1  LIG1        0.0618
     13 C           2.6471    8.2720    8.3808 C.ar    1  LIG1       -0.0610
     14 H           2.5570    9.1320    7.9909 H       1  LIG1        0.0618
     15 C           2.6629    7.1991    7.5491 C.ar    1  LIG1       -0.0508
     16 H           2.6100    7.3418    6.5941 H       1  LIG1        0.0625
     17 C           2.7211    4.7188    7.2174 C.ar    1  LIG1        0.0457
     18 N           2.7074    4.4909   10.0698 N.ar    1  LIG1       -0.2466
     19 C           2.7465    3.4432    7.8509 C.ar    1  LIG1        0.0218
     20 C           2.7345    3.4024    9.2792 C.ar    1  LIG1        0.0734
     21 C           2.7008    5.8723    8.0558 C.ar    1  LIG1        0.0218
     22 C           2.6988    5.7013    9.4647 C.ar    1  LIG1        0.0734
     23 N           2.7472    4.8964    5.8771 N.pl3   1  LIG1       -0.3417
     24 H           2.9463    5.6537    5.5986 H       1  LIG1        0.1461
     25 C           2.2929    4.0120    4.8312 C.3     1  LIG1        0.0226
     26 H           1.5981    3.4443    5.1875 H       1  LIG1        0.0473
     27 H           2.9852    3.4783    4.4742 H       1  LIG1        0.0473
     28 C           1.8237    4.7971    3.6370 C.3     1  LIG1        0.0380
     29 H           2.4957    5.3817    3.2409 H       1  LIG1        0.0445
     30 H           1.5504    4.2148    2.9355 H       1  LIG1        0.0445
     31 CL          0.4839    5.8876    4.0349 Cl      1  LIG1       -0.1238
     32 O           4.0720    7.1721    4.4490 O.3     2  HOH2       -0.4105
     33 H           4.4696    6.9000    3.5827 H       0  HOH0        0.2052
     34 H           4.7991    7.1152    4.9695 H       0  HOH0        0.2052
@<TRIPOS>BOND
     1    30    28    1
     2    29    28    1
     3    33    32    1
     4    28    31    1
     5    28    25    1
     6    32    34    1
     7    27    25    1
     8    25    26    1
     9    25    23    1
    10    24    23    1
    11    23    17    1
    12     2     1    1
    13    16    15    1
    14     1     3   ar
    15     1    19   ar
    16    17    19   ar
    17    17    21   ar
    18     4     3    1
    19    15    21   ar
    20    15    13   ar
    21     3     5   ar
    22    19    20   ar
    23    14    13    1
    24    21    22   ar
    25    13    11   ar
    26     5     6    1
    27     5     7   ar
    28    20     7   ar
    29    20    18   ar
    30    22    18   ar
    31    22     9   ar
    32    11     9   ar
    33    11    12    1
    34     7     8    1
    35     9    10    1
