@<TRIPOS>MOLECULE
2-(Acridin-9-ylimino)-3-dimethylamino-1,3-thiazolidin-4-one
 40 43 0 0 0
SMALL
GASTEIGER

@<TRIPOS>ATOM
      1 S           1.8819    6.5810    1.2131 S.3     1  LIG1       -0.0819
      2 O           0.8763    9.1204   -1.5024 O.2     1  LIG1       -0.2730
      3 N           5.8753    3.7375    2.8291 N.ar    1  LIG1       -0.2466
      4 N           4.2552    6.3349   -0.1076 N.am    1  LIG1       -0.1910
      5 N           2.6319    7.7421   -0.9998 N.am    1  LIG1       -0.1806
      6 N           3.3706    8.1511   -2.1221 N.3     1  LIG1       -0.2243
      7 C           5.2852    7.3800    2.4049 C.ar    1  LIG1       -0.0507
      8 H           4.9420    8.0023    1.7893 H       1  LIG1        0.0625
      9 C           5.8219    7.8258    3.5555 C.ar    1  LIG1       -0.0610
     10 H           5.7875    8.7494    3.7792 H       1  LIG1        0.0618
     11 C           6.3410    6.9123    4.4963 C.ar    1  LIG1       -0.0597
     12 H           6.6955    7.2804    5.2756 H       1  LIG1        0.0618
     13 C           6.3396    5.5938    4.2519 C.ar    1  LIG1       -0.0357
     14 H           6.6785    4.9749    4.8859 H       1  LIG1        0.0639
     15 C           5.4722    1.8654    1.4065 C.ar    1  LIG1       -0.0357
     16 H           5.8375    1.3483    2.0821 H       1  LIG1        0.0639
     17 C           4.9796    1.3333    0.2732 C.ar    1  LIG1       -0.0597
     18 H           5.0418    0.3930    0.1499 H       1  LIG1        0.0618
     19 C           4.3746    2.1448   -0.7079 C.ar    1  LIG1       -0.0610
     20 H           4.0581    1.7335   -1.5218 H       1  LIG1        0.0618
     21 C           4.2948    3.4842   -0.5257 C.ar    1  LIG1       -0.0507
     22 H           3.8939    4.0585   -1.1886 H       1  LIG1        0.0625
     23 C           4.8007    4.0912    0.6550 C.ar    1  LIG1        0.0240
     24 C           5.3909    3.2612    1.6606 C.ar    1  LIG1        0.0735
     25 C           5.8105    5.0669    3.0391 C.ar    1  LIG1        0.0735
     26 C           5.2524    5.9923    2.0970 C.ar    1  LIG1        0.0240
     27 C           4.7274    5.4706    0.9009 C.ar    1  LIG1        0.0740
     28 C           3.0946    6.8421   -0.0364 C.2     1  LIG1        0.1675
     29 C           0.6799    7.6182    0.3436 C.3     1  LIG1        0.0791
     30 H           0.3494    8.2552    0.9569 H       1  LIG1        0.0476
     31 H          -0.0335    7.0645    0.0692 H       1  LIG1        0.0476
     32 C           1.3638    8.2593   -0.8128 C.2     1  LIG1        0.2455
     33 C           4.5786    8.8996   -1.7685 C.3     1  LIG1        0.0055
     34 H           5.2853    8.2883   -1.4296 H       1  LIG1        0.0407
     35 H           4.9000    9.2902   -2.5479 H       1  LIG1        0.0407
     36 H           4.3448    9.5587   -1.1068 H       1  LIG1        0.0407
     37 C           3.5902    7.0557   -3.0644 C.3     1  LIG1        0.0055
     38 H           2.7311    6.5975   -3.2166 H       1  LIG1        0.0407
     39 H           3.9326    7.4769   -3.8276 H       1  LIG1        0.0407
     40 H           4.2774    6.4516   -2.7208 H       1  LIG1        0.0407
@<TRIPOS>BOND
     1    39    37    1
     2    38    37    1
     3    37    40    1
     4    37     6    1
     5    35    33    1
     6     6    33    1
     7     6     5    1
     8    33    34    1
     9    33    36    1
    10    20    19    1
    11     2    32    2
    12    22    21    1
    13     5    32   am
    14     5    28    1
    15    32    29    1
    16    19    21   ar
    17    19    17   ar
    18    21    23   ar
    19     4    28    1
    20     4    27    1
    21    28     1    2
    22    31    29    1
    23    18    17    1
    24    17    15   ar
    25    29    30    1
    26    29     1    1
    27    23    27   ar
    28    23    24   ar
    29    27    26   ar
    30    15    24   ar
    31    15    16    1
    32    24     3   ar
    33     8     7    1
    34    26     7   ar
    35    26    25   ar
    36     7     9   ar
    37     3    25   ar
    38    25    13   ar
    39     9    10    1
    40     9    11   ar
    41    13    11   ar
    42    13    14    1
    43    11    12    1
