@<TRIPOS>MOLECULE
Ammonium [1-hydroxy-1-phosphono-2-(pyridinium-3-yl)ethyl]phosphonate dihydrate
 38 35 0 0 0
SMALL
GASTEIGER

@<TRIPOS>ATOM
      1 P           1.1981    9.8317   -0.3539 P.3     1  LIG1        0.4005
      2 P           1.0723    8.0499    2.1019 P.3     1  LIG1        0.4005
      3 O           2.5225   10.5280   -0.1472 O.3     1  LIG1       -0.1375
      4 O           1.2423    8.4972   -1.0699 O.2     1  LIG1       -0.2527
      5 O           0.2333   10.8274   -1.0721 O.3     1  LIG1       -0.3202
      6 H          -0.2348   10.5599   -1.6993 H       1  LIG1        0.2199
      7 O           0.2186    7.6429    3.2775 O.3     1  LIG1       -0.1375
      8 O           2.5178    8.3489    2.3878 O.2     1  LIG1       -0.2527
      9 O           0.8996    6.9014    1.0249 O.3     1  LIG1       -0.3202
     10 H           0.9618    7.1955    0.2661 H       1  LIG1        0.2199
     11 O          -0.9984    9.2548    1.0594 O.3     1  LIG1       -0.3668
     12 H          -1.4132    9.9337    0.7572 H       1  LIG1        0.2117
     13 O           0.7345    7.2075    5.8751 O.3     2  HOH2       -0.4105
     14 H           0.9487    6.4219    5.8844 H       0  HOH0        0.2052
     15 H           0.6650    7.4656    5.0937 H       0  HOH0        0.2052
     16 O           1.1350   10.9396    8.3280 O.3     3  HOH3       -0.4105
     17 H           1.9015   10.6827    8.4047 H       0  HOH0        0.2052
     18 H           0.7796   10.7196    9.0559 H       0  HOH0        0.2052
     19 C           0.3863    9.5493    1.2903 C.3     1  LIG1        0.2751
     20 C           0.5609   10.8152    2.1717 C.3     1  LIG1        0.0225
     21 H           1.5177   10.9737    2.3062 H       1  LIG1        0.0351
     22 H           0.1971   11.5865    1.6885 H       1  LIG1        0.0351
     23 C          -0.1083   10.7322    3.5205 C.2     1  LIG1       -0.0442
     24 C           0.6533   10.6299    4.6706 C.2     1  LIG1       -0.0068
     25 H           1.5802   10.6041    4.6048 H       1  LIG1        0.0781
     26 C          -1.2598   10.5699    6.0337 C.2     1  LIG1       -0.0101
     27 H          -1.6337   10.5084    6.8828 H       1  LIG1        0.0778
     28 C          -2.0684   10.6643    4.9336 C.2     1  LIG1       -0.0622
     29 H          -2.9937   10.6582    5.0288 H       1  LIG1        0.0591
     30 C          -1.4917   10.7694    3.6669 C.3     1  LIG1        0.0112
     31 H          -2.0330   10.8645    2.9173 H       1  LIG1        0.0398
     32 N           0.0711   10.5667    5.8856 N.pl3   1  LIG1       -0.3267
     33 H           0.5690   10.5231    6.5853 H       1  LIG1        0.1511
     34 N           4.4868   11.0619    1.8532 N.4     4  LIG4        0.2099
     35 H           3.8483   10.7318    1.2980 H       1  LIG1        0.1975
     36 H           5.2832   11.0879    1.4495 H       1  LIG1        0.1975
     37 H           4.2065   11.8910    2.0336 H       1  LIG1        0.1975
     38 H           4.5472   10.6005    2.6793 H       1  LIG1        0.1975
@<TRIPOS>BOND
     1     6     5    1
     2     5     1    1
     3     4     1    2
     4     1     3    1
     5     1    19    1
     6    10     9    1
     7    12    11    1
     8     9     2    1
     9    11    19    1
    10    19     2    1
    11    19    20    1
    12    35    34    1
    13    36    34    1
    14    22    20    1
    15    34    37    1
    16    34    38    1
    17     2     8    2
    18     2     7    1
    19    20    21    1
    20    20    23    1
    21    31    30    1
    22    23    30    1
    23    23    24    2
    24    30    28    1
    25    25    24    1
    26    24    32    1
    27    28    29    1
    28    28    26    2
    29    15    13    1
    30    13    14    1
    31    32    26    1
    32    32    33    1
    33    26    27    1
    34    16    17    1
    35    16    18    1
