@<TRIPOS>MOLECULE
2-Chloro-N-(2-nitrophenyl)nicotinamide
 27 28 0 0 0
SMALL
GASTEIGER

@<TRIPOS>ATOM
      1 CL          3.5036    6.3884    3.3701 Cl      1  LIG1       -0.0612
      2 O           0.4197    8.9875    3.4890 O.2     1  LIG1       -0.2697
      3 O           4.4242    8.2903    6.2090 O.2     1  LIG1       -0.1261
      4 O           5.9460    9.8190    6.2278 O.2     1  LIG1       -0.1261
      5 N           1.7258    4.5683    3.8509 N.ar    1  LIG1       -0.2428
      6 N           2.1151    8.7940    5.0288 N.am    1  LIG1       -0.2795
      7 N           4.7857    9.4633    6.0530 N.pl3   1  LIG1        0.0583
      8 C           1.9165    5.8756    3.8830 C.ar    1  LIG1        0.1413
      9 C           0.9570    6.8184    4.2509 C.ar    1  LIG1        0.0738
     10 C          -0.2951    6.3214    4.6103 C.ar    1  LIG1       -0.0453
     11 C          -0.5195    4.9578    4.6060 C.ar    1  LIG1       -0.0428
     12 C           0.5157    4.1196    4.2216 C.ar    1  LIG1        0.0293
     13 C           1.1366    8.3165    4.2036 C.2     1  LIG1        0.2512
     14 C           2.5182   10.1320    5.1780 C.ar    1  LIG1        0.0641
     15 C           3.7969   10.4717    5.6751 C.ar    1  LIG1        0.1473
     16 C           4.1901   11.7957    5.8442 C.ar    1  LIG1       -0.0296
     17 C           3.3182   12.8169    5.5353 C.ar    1  LIG1       -0.0595
     18 C           2.0564   12.5068    5.0379 C.ar    1  LIG1       -0.0599
     19 C           1.6595   11.1925    4.8597 C.ar    1  LIG1       -0.0382
     20 H          -0.9920    6.9179    4.8572 H       1  LIG1        0.0626
     21 H          -1.3630    4.6037    4.8601 H       1  LIG1        0.0633
     22 H           0.3612    3.1820    4.2202 H       1  LIG1        0.0830
     23 H           2.5389    8.2006    5.5202 H       1  LIG1        0.1552
     24 H           5.0588   11.9948    6.1723 H       1  LIG1        0.0641
     25 H           3.5760   13.7237    5.6598 H       1  LIG1        0.0618
     26 H           1.4561   13.2102    4.8162 H       1  LIG1        0.0618
     27 H           0.7930   11.0081    4.5168 H       1  LIG1        0.0637
@<TRIPOS>BOND
     1     1     8    1
     2     2    13    2
     3     5     8   ar
     4     5    12   ar
     5     8     9   ar
     6    13     9    1
     7    13     6   am
     8    22    12    1
     9    12    11   ar
    10     9    10   ar
    11    27    19    1
    12    11    10   ar
    13    11    21    1
    14    10    20    1
    15    26    18    1
    16    19    18   ar
    17    19    14   ar
    18     6    14    1
    19     6    23    1
    20    18    17   ar
    21    14    15   ar
    22    17    25    1
    23    17    16   ar
    24    15    16   ar
    25    15     7    1
    26    16    24    1
    27     7     3    2
    28     7     4    2
