@<TRIPOS>MOLECULE
N H4 + , C10 H9 O3 -
 27 26 0 0 0
SMALL
GASTEIGER

@<TRIPOS>ATOM
      1 O           1.3808    2.4041    3.0771 O.co2   1  LIG1       -0.2413
      2 O           1.6685    0.2284    2.8035 O.co2   1  LIG1       -0.2413
      3 O           9.5336    3.3873    0.7833 O.3     1  LIG1       -0.4951
      4 N          -1.3113    1.2905    3.0636 N.4     2  LIG2        0.2099
      5 C           2.0711    1.4157    2.7544 C.2     1  LIG1        0.3795
      6 C           3.4634    1.5960    2.2596 C.2     1  LIG1        0.0272
      7 C           4.1392    2.7038    2.3096 C.2     1  LIG1       -0.0477
      8 C           5.5443    2.8990    1.8941 C.ar    1  LIG1       -0.0246
      9 C           6.2425    1.9437    1.1504 C.ar    1  LIG1       -0.0511
     10 C           7.5595    2.1312    0.7913 C.ar    1  LIG1       -0.0194
     11 C           8.2217    3.2870    1.1877 C.ar    1  LIG1        0.1201
     12 C           7.5495    4.2399    1.9195 C.ar    1  LIG1       -0.0194
     13 C           6.2235    4.0441    2.2541 C.ar    1  LIG1       -0.0511
     14 C          10.2357    4.5650    1.1306 C.3     1  LIG1        0.0788
     15 H          -1.8263    2.0766    2.9225 H       1  LIG1        0.1975
     16 H          -1.6675    0.8069    3.7994 H       1  LIG1        0.1975
     17 H          -0.4118    1.5308    3.2491 H       1  LIG1        0.1975
     18 H          -1.3404    0.7488    2.2834 H       1  LIG1        0.1975
     19 H           3.8926    0.8395    1.8775 H       1  LIG1        0.0690
     20 H           3.6849    3.4656    2.6481 H       1  LIG1        0.0626
     21 H           5.7987    1.1469    0.8864 H       1  LIG1        0.0625
     22 H           8.0130    1.4744    0.2767 H       1  LIG1        0.0654
     23 H           7.9990    5.0308    2.1946 H       1  LIG1        0.0654
     24 H           5.7653    4.7163    2.7457 H       1  LIG1        0.0625
     25 H           9.8294    5.3120    0.7072 H       1  LIG1        0.0660
     26 H          11.1382    4.4902    0.8436 H       1  LIG1        0.0660
     27 H          10.2124    4.6819    2.0725 H       1  LIG1        0.0660
@<TRIPOS>BOND
     1    22    10    1
     2    25    14    1
     3     3    14    1
     4     3    11    1
     5    10     9   ar
     6    10    11   ar
     7    26    14    1
     8    21     9    1
     9    14    27    1
    10     9     8   ar
    11    11    12   ar
    12    19     6    1
    13     8    13   ar
    14     8     7    1
    15    12    23    1
    16    12    13   ar
    17    13    24    1
    18     6     7    2
    19     6     5    1
    20    18     4    1
    21     7    20    1
    22     5     2   ar
    23     5     1   ar
    24    15     4    1
    25     4    17    1
    26     4    16    1
