@<TRIPOS>MOLECULE
2-hydroxy-1,2-diphenylethanone 4-ethylthiosemicarbazone
 41 42 0 0 0
SMALL
GASTEIGER

@<TRIPOS>ATOM
      1 S           0.5271    5.4591    5.8821 S.2     1  LIG1       -0.0172
      2 O           4.2521    5.7365    3.2871 O.3     1  LIG1       -0.3809
      3 H           4.8121    5.7256    3.8860 H       1  LIG1        0.2108
      4 N           3.2543    3.1593    4.3239 N.2     1  LIG1       -0.1821
      5 N           2.4119    4.2141    4.5575 N.am    1  LIG1       -0.2181
      6 H           2.4858    4.9397    4.1016 H       1  LIG1        0.1762
      7 N           1.3058    2.8958    6.0634 N.am    1  LIG1       -0.3256
      8 H           1.8829    2.2963    5.8465 H       1  LIG1        0.1477
      9 C           4.1504    3.2847    3.4090 C.2     1  LIG1        0.0991
     10 C           1.4606    4.0983    5.5165 C.2     1  LIG1        0.1499
     11 C           0.2380    2.4780    7.0145 C.3     1  LIG1        0.0079
     12 H          -0.5891    2.9375    6.7988 H       1  LIG1        0.0459
     13 H           0.0843    1.5243    6.9352 H       1  LIG1        0.0459
     14 C           0.6370    2.7997    8.3774 C.3     1  LIG1       -0.0496
     15 H          -0.0572    2.5335    8.9854 H       1  LIG1        0.0245
     16 H           0.7840    3.7453    8.4527 H       1  LIG1        0.0245
     17 H           1.4470    2.3310    8.5917 H       1  LIG1        0.0245
     18 C           4.3348    4.5323    2.5387 C.3     1  LIG1        0.1240
     19 H           5.2238    4.4884    2.1281 H       1  LIG1        0.0710
     20 C           3.3028    4.5566    1.4265 C.ar    1  LIG1       -0.0132
     21 C           2.3303    5.5532    1.3668 C.ar    1  LIG1       -0.0558
     22 H           2.3006    6.2210    2.0125 H       1  LIG1        0.0621
     23 C           1.4046    5.5370    0.3261 C.ar    1  LIG1       -0.0614
     24 H           0.7609    6.2059    0.2728 H       1  LIG1        0.0618
     25 C           1.4310    4.5543   -0.6132 C.ar    1  LIG1       -0.0617
     26 H           0.7955    4.5509   -1.2914 H       1  LIG1        0.0618
     27 C           2.3839    3.5682   -0.5717 C.ar    1  LIG1       -0.0614
     28 H           2.4058    2.8993   -1.2174 H       1  LIG1        0.0618
     29 C           3.3181    3.5914    0.4612 C.ar    1  LIG1       -0.0558
     30 H           3.9718    2.9317    0.4924 H       1  LIG1        0.0621
     31 C           5.0491    2.1041    3.2273 C.ar    1  LIG1        0.0006
     32 C           6.1128    2.1122    2.3438 C.ar    1  LIG1       -0.0527
     33 H           6.2620    2.8588    1.8111 H       1  LIG1        0.0624
     34 C           6.9597    1.0173    2.2424 C.ar    1  LIG1       -0.0611
     35 H           7.6706    1.0382    1.6422 H       1  LIG1        0.0618
     36 C           6.7627   -0.0787    3.0051 C.ar    1  LIG1       -0.0617
     37 H           7.3366   -0.8067    2.9297 H       1  LIG1        0.0618
     38 C           5.7078   -0.1181    3.9002 C.ar    1  LIG1       -0.0611
     39 H           5.5770   -0.8692    4.4329 H       1  LIG1        0.0618
     40 C           4.8481    0.9606    3.9977 C.ar    1  LIG1       -0.0527
     41 H           4.1272    0.9213    4.5836 H       1  LIG1        0.0624
@<TRIPOS>BOND
     1    26    25    1
     2    28    27    1
     3    25    27   ar
     4    25    23   ar
     5    27    29   ar
     6    24    23    1
     7    23    21   ar
     8    29    30    1
     9    29    20   ar
    10    21    20   ar
    11    21    22    1
    12    20    18    1
    13    35    34    1
    14    33    32    1
    15    19    18    1
    16    34    32   ar
    17    34    36   ar
    18    32    31   ar
    19    18     2    1
    20    18     9    1
    21    37    36    1
    22    36    38   ar
    23    31     9    1
    24    31    40   ar
    25     2     3    1
    26     9     4    2
    27    38    40   ar
    28    38    39    1
    29    40    41    1
    30     6     5    1
    31     4     5    1
    32     5    10    1
    33    10     1    2
    34    10     7    1
    35     8     7    1
    36     7    11    1
    37    12    11    1
    38    13    11    1
    39    11    14    1
    40    14    16    1
    41    14    17    1
    42    14    15    1
