@<TRIPOS>MOLECULE
2,3-dibromo-1,3-diphenylpropan-1-one
 30 31 0 0 0
SMALL
GASTEIGER

@<TRIPOS>ATOM
      1 C          -0.0186    1.6263    1.9291 C.ar    1  LIG1       -0.0575
      2 H          -0.4721    1.8538    2.7335 H       1  LIG1        0.0621
      3 C          -0.7071    1.0207    0.8970 C.ar    1  LIG1       -0.0615
      4 H          -1.6276    0.8077    0.9969 H       1  LIG1        0.0618
      5 C          -0.0432    0.7230   -0.2897 C.ar    1  LIG1       -0.0617
      6 H          -0.5126    0.3014   -1.0006 H       1  LIG1        0.0618
      7 C           1.2875    1.0381   -0.4369 C.ar    1  LIG1       -0.0615
      8 H           1.7286    0.8642   -1.2607 H       1  LIG1        0.0618
      9 C           1.9750    1.6010    0.6026 C.ar    1  LIG1       -0.0575
     10 H           2.9021    1.7879    0.5100 H       1  LIG1        0.0621
     11 C           1.3233    1.9009    1.7939 C.ar    1  LIG1       -0.0324
     12 C           2.0672    2.4739    2.9853 C.3     1  LIG1        0.0592
     13 H           1.4035    2.7318    3.6878 H       1  LIG1        0.0482
     14 C           2.9663    3.6490    2.7048 C.3     1  LIG1        0.0939
     15 H           3.7374    3.3664    2.1346 H       1  LIG1        0.0514
     16 C           3.4734    4.3082    3.9942 C.2     1  LIG1        0.1779
     17 C           4.7467    5.0804    3.9646 C.ar    1  LIG1        0.0186
     18 C           5.4302    5.3702    2.7825 C.ar    1  LIG1       -0.0512
     19 H           5.0903    5.0609    1.9513 H       1  LIG1        0.0625
     20 C           6.6072    6.1084    2.8168 C.ar    1  LIG1       -0.0611
     21 H           7.0725    6.3011    2.0105 H       1  LIG1        0.0618
     22 C           7.0994    6.5626    4.0275 C.ar    1  LIG1       -0.0617
     23 H           7.9020    7.0719    4.0516 H       1  LIG1        0.0618
     24 C           6.4191    6.2728    5.2161 C.ar    1  LIG1       -0.0611
     25 H           6.7652    6.5742    6.0473 H       1  LIG1        0.0618
     26 C           5.2552    5.5542    5.1809 C.ar    1  LIG1       -0.0512
     27 H           4.7872    5.3753    5.9881 H       1  LIG1        0.0625
     28 O           2.8140    4.2169    5.0069 O.2     1  LIG1       -0.2908
     29 BR          3.3115    1.1297    3.7366 Br      1  LIG1       -0.0814
     30 BR          1.9112    5.0871    1.7855 Br      1  LIG1       -0.0781
@<TRIPOS>BOND
     1     8     7    1
     2     6     5    1
     3     7     5   ar
     4     7     9   ar
     5     5     3   ar
     6    10     9    1
     7     9    11   ar
     8     3     4    1
     9     3     1   ar
    10    30    14    1
    11    11     1   ar
    12    11    12    1
    13     1     2    1
    14    19    18    1
    15    21    20    1
    16    15    14    1
    17    14    12    1
    18    14    16    1
    19    18    20   ar
    20    18    17   ar
    21    20    22   ar
    22    12    13    1
    23    12    29    1
    24    17    16    1
    25    17    26   ar
    26    16    28    2
    27    22    23    1
    28    22    24   ar
    29    26    24   ar
    30    26    27    1
    31    24    25    1
