@<TRIPOS>MOLECULE
(R)-N-[(R)-1-(2-Hydroxy-5-methylphenyl)-2-phenylethyl]-2-methyl-1- phenylpropylammonium chloride
 58 59 0 0 0
SMALL
GASTEIGER

@<TRIPOS>ATOM
      1 C           1.4577    5.9860   17.6399 C.ar    1  LIG1        0.1254
      2 C           1.4029    7.0338   18.5288 C.ar    1  LIG1       -0.0195
      3 H           0.6467    7.5739   18.5678 H       1  LIG1        0.0654
      4 C           2.4691    7.2802   19.3591 C.ar    1  LIG1       -0.0554
      5 H           2.4262    7.9960   19.9496 H       1  LIG1        0.0621
      6 C           3.6010    6.4926   19.3404 C.ar    1  LIG1       -0.0498
      7 C           4.8026    6.8257   20.1939 C.3     1  LIG1       -0.0397
      8 H           5.1793    6.0161   20.5461 H       1  LIG1        0.0278
      9 H           4.5326    7.3958   20.9179 H       1  LIG1        0.0278
     10 H           5.4593    7.2779   19.6593 H       1  LIG1        0.0278
     11 C           3.6209    5.4240   18.4533 C.ar    1  LIG1       -0.0468
     12 H           4.3712    4.8758   18.4247 H       1  LIG1        0.0626
     13 C           2.5578    5.1476   17.6089 C.ar    1  LIG1        0.0419
     14 C           2.6016    3.9460   16.6888 C.3     1  LIG1        0.0113
     15 H           3.5103    3.5805   16.6969 H       1  LIG1        0.0908
     16 C           1.6231    2.8265   17.0699 C.3     1  LIG1        0.0200
     17 H           0.7523    3.2128   17.2536 H       1  LIG1        0.0372
     18 H           1.5275    2.2170   16.3211 H       1  LIG1        0.0372
     19 C           2.0914    2.0574   18.2809 C.ar    1  LIG1       -0.0417
     20 C           1.7836    2.4668   19.5649 C.ar    1  LIG1       -0.0584
     21 H           1.2684    3.2301   19.6951 H       1  LIG1        0.0620
     22 C           2.2369    1.7475   20.6574 C.ar    1  LIG1       -0.0615
     23 H           2.0297    2.0331   21.5183 H       1  LIG1        0.0618
     24 C           2.9792    0.6326   20.4804 C.ar    1  LIG1       -0.0617
     25 H           3.2931    0.1642   21.2201 H       1  LIG1        0.0618
     26 C           3.2712    0.1920   19.2259 C.ar    1  LIG1       -0.0615
     27 H           3.7624   -0.5887   19.1066 H       1  LIG1        0.0618
     28 C           2.8298    0.9148   18.1324 C.ar    1  LIG1       -0.0584
     29 H           3.0400    0.6187   17.2775 H       1  LIG1        0.0620
     30 C           3.2253    5.3372   14.6262 C.3     1  LIG1        0.0061
     31 H           3.2921    6.1271   15.2018 H       1  LIG1        0.0906
     32 C           2.6365    5.7860   13.2846 C.3     1  LIG1        0.0007
     33 H           2.5687    5.0019   12.7006 H       1  LIG1        0.0354
     34 C           1.2515    6.3908   13.4295 C.3     1  LIG1       -0.0572
     35 H           0.6277    5.7073   13.6848 H       1  LIG1        0.0234
     36 H           0.9805    6.7748   12.5913 H       1  LIG1        0.0234
     37 H           1.2694    7.0743   14.1043 H       1  LIG1        0.0234
     38 C           3.5681    6.7840   12.6334 C.3     1  LIG1       -0.0572
     39 H           3.6458    7.5612   13.1917 H       1  LIG1        0.0234
     40 H           3.2164    7.0396   11.7781 H       1  LIG1        0.0234
     41 H           4.4340    6.3862   12.5177 H       1  LIG1        0.0234
     42 C           4.6054    4.7324   14.5164 C.ar    1  LIG1        0.0004
     43 C           5.6705    5.2760   15.1924 C.ar    1  LIG1       -0.0532
     44 H           5.5211    5.9895   15.7704 H       1  LIG1        0.0622
     45 C           6.9569    4.7937   15.0415 C.ar    1  LIG1       -0.0613
     46 H           7.6653    5.1869   15.4980 H       1  LIG1        0.0618
     47 C           7.1711    3.7228   14.2037 C.ar    1  LIG1       -0.0617
     48 H           8.0300    3.3839   14.0963 H       1  LIG1        0.0618
     49 C           6.1308    3.1549   13.5299 C.ar    1  LIG1       -0.0613
     50 H           6.2833    2.4321   12.9631 H       1  LIG1        0.0618
     51 C           4.8565    3.6476   13.6866 C.ar    1  LIG1       -0.0532
     52 H           4.1520    3.2486   13.2295 H       1  LIG1        0.0622
     53 CL          1.5154    2.1728   13.2601 Cl      2  LIG2        0.0000
     54 N           2.2698    4.3786   15.2779 N.4     1  LIG1        0.2384
     55 H           2.2180    3.6418   14.7644 H       1  LIG1        0.2026
     56 H           1.4537    4.7590   15.2853 H       1  LIG1        0.2026
     57 O           0.4314    5.7114   16.7599 O.3     1  LIG1       -0.5063
     58 H          -0.0189    6.3862   16.6472 H       1  LIG1        0.2921
@<TRIPOS>BOND
     1    40    38    1
     2    41    38    1
     3    36    34    1
     4    38    39    1
     5    38    32    1
     6    33    32    1
     7    50    49    1
     8    52    51    1
     9    32    34    1
    10    32    30    1
    11    34    35    1
    12    34    37    1
    13    49    51   ar
    14    49    47   ar
    15    51    42   ar
    16    48    47    1
    17    47    45   ar
    18    42    30    1
    19    42    43   ar
    20    30    31    1
    21    30    54    1
    22    55    54    1
    23    45    43   ar
    24    45    46    1
    25    43    44    1
    26    54    56    1
    27    54    14    1
    28    18    16    1
    29    58    57    1
    30    14    15    1
    31    14    16    1
    32    14    13    1
    33    57     1    1
    34    16    17    1
    35    16    19    1
    36    29    28    1
    37    13     1   ar
    38    13    11   ar
    39     1     2   ar
    40    28    19   ar
    41    28    26   ar
    42    19    20   ar
    43    12    11    1
    44    11     6   ar
    45     2     3    1
    46     2     4   ar
    47    27    26    1
    48    26    24   ar
    49     6     4   ar
    50     6     7    1
    51     4     5    1
    52    20    21    1
    53    20    22   ar
    54    10     7    1
    55     7     8    1
    56     7     9    1
    57    24    22   ar
    58    24    25    1
    59    22    23    1
