@<TRIPOS>MOLECULE
2,4-dinitrobenzaldehyde isonicotinoylhydrazone monohydrate
 35 35 0 0 0
SMALL
GASTEIGER

@<TRIPOS>ATOM
      1 O           1.6750    8.5081   10.0193 O.2     1  LIG1       -0.2684
      2 O           4.6735    2.8198    8.9989 O.2     1  LIG1       -0.1261
      3 O           3.5990    0.9619    9.2070 O.2     1  LIG1       -0.1261
      4 O           0.0300    0.1764    6.1017 O.2     1  LIG1       -0.1261
      5 O          -1.5718    1.6282    6.1894 O.2     1  LIG1       -0.1261
      6 N           3.6830    2.1211    8.8320 N.pl3   1  LIG1        0.0571
      7 N          -0.4090    1.2848    6.3743 N.pl3   1  LIG1        0.0565
      8 N           5.6017   11.1695   11.7197 N.ar    1  LIG1       -0.2632
      9 N           3.4412    7.1111    9.6904 N.am    1  LIG1       -0.2030
     10 N           2.6171    6.1867    9.1017 N.2     1  LIG1       -0.1874
     11 C           5.8435    9.8590   11.8653 C.ar    1  LIG1        0.0283
     12 C           4.9963    8.8623   11.4071 C.ar    1  LIG1       -0.0314
     13 C           3.8255    9.2389   10.7562 C.ar    1  LIG1        0.0412
     14 C           3.5348   10.5936   10.6362 C.ar    1  LIG1       -0.0314
     15 C           4.4577   11.5149   11.1164 C.ar    1  LIG1        0.0283
     16 C           2.8654    8.2605   10.1410 C.2     1  LIG1        0.2634
     17 C           2.2929    4.0875    8.0996 C.ar    1  LIG1        0.0249
     18 C           2.5274    2.7038    8.1351 C.ar    1  LIG1        0.1369
     19 C           1.6574    1.7793    7.5776 C.ar    1  LIG1       -0.0006
     20 C           0.5076    2.2603    6.9860 C.ar    1  LIG1        0.1284
     21 C           0.1925    3.6068    6.9467 C.ar    1  LIG1       -0.0307
     22 C           1.0945    4.5057    7.4977 C.ar    1  LIG1       -0.0488
     23 C           3.1743    5.1127    8.6943 C.2     1  LIG1        0.0550
     24 O           6.2071    6.4166    9.7379 O.3     2  HOH2       -0.4105
     25 H           6.6422    9.5979   12.3090 H       1  LIG1        0.0830
     26 H           5.2096    7.9461   11.5339 H       1  LIG1        0.0640
     27 H           2.7238   10.8825   10.2349 H       1  LIG1        0.0640
     28 H           4.2658   12.4388   11.0116 H       1  LIG1        0.0830
     29 H           4.2934    6.9428    9.7492 H       1  LIG1        0.1776
     30 H           1.8462    0.8481    7.6020 H       1  LIG1        0.0663
     31 H          -0.6187    3.9079    6.5543 H       1  LIG1        0.0640
     32 H           0.8951    5.4336    7.4664 H       1  LIG1        0.0625
     33 H           4.0988    4.9708    8.7669 H       1  LIG1        0.0852
     34 H           6.8851    6.9289    9.6776 H       0  HOH0        0.2052
     35 H           6.4782    5.7136   10.1512 H       0  HOH0        0.2052
@<TRIPOS>BOND
     1     4     7    2
     2     5     7    2
     3     7    20    1
     4    31    21    1
     5    21    20   ar
     6    21    22   ar
     7    20    19   ar
     8    32    22    1
     9    22    17   ar
    10    19    30    1
    11    19    18   ar
    12    17    18   ar
    13    17    23    1
    14    18     6    1
    15    23    33    1
    16    23    10    2
    17     6     2    2
    18     6     3    2
    19    10     9    1
    20    34    24    1
    21     9    29    1
    22     9    16   am
    23    24    35    1
    24     1    16    2
    25    16    13    1
    26    27    14    1
    27    14    13   ar
    28    14    15   ar
    29    13    12   ar
    30    28    15    1
    31    15     8   ar
    32    12    26    1
    33    12    11   ar
    34     8    11   ar
    35    11    25    1
