@<TRIPOS>MOLECULE
rac-erythro-1,2-diphenyl-1,3-propanediol
 33 34 0 0 0
SMALL
GASTEIGER

@<TRIPOS>ATOM
      1 O          -2.7956    1.2140   16.2250 O.3     1  LIG1       -0.3865
      2 H          -3.3721    1.4494   16.7902 H       1  LIG1        0.2103
      3 O          -3.4932   -1.9948   14.8385 O.3     1  LIG1       -0.3943
      4 H          -3.0937   -2.6669   15.1455 H       1  LIG1        0.2094
      5 C          -1.2451    0.2023   17.8140 C.ar    1  LIG1       -0.0185
      6 C          -0.4210    1.3129   17.8909 C.ar    1  LIG1       -0.0561
      7 H          -0.4359    1.9630   17.1977 H       1  LIG1        0.0621
      8 C           0.4296    1.4801   18.9796 C.ar    1  LIG1       -0.0614
      9 H           0.9925    2.2437   19.0256 H       1  LIG1        0.0618
     10 C           0.4591    0.5449   19.9897 C.ar    1  LIG1       -0.0617
     11 H           1.0439    0.6627   20.7292 H       1  LIG1        0.0618
     12 C          -0.3562   -0.5575   19.9286 C.ar    1  LIG1       -0.0614
     13 H          -0.3384   -1.2022   20.6261 H       1  LIG1        0.0618
     14 C          -1.2083   -0.7291   18.8431 C.ar    1  LIG1       -0.0561
     15 H          -1.7713   -1.4927   18.8047 H       1  LIG1        0.0621
     16 C          -2.1868   -0.0106   16.6467 C.3     1  LIG1        0.0890
     17 H          -2.9150   -0.6244   16.9506 H       1  LIG1        0.0650
     18 C          -1.5023   -0.6614   15.4232 C.3     1  LIG1        0.0374
     19 H          -1.0831   -1.5113   15.7429 H       1  LIG1        0.0400
     20 C          -2.5363   -1.0492   14.3602 C.3     1  LIG1        0.0537
     21 H          -3.0111   -0.2341   14.0589 H       1  LIG1        0.0564
     22 H          -2.0658   -1.4329   13.5778 H       1  LIG1        0.0564
     23 C          -0.3918    0.1798   14.8359 C.ar    1  LIG1       -0.0393
     24 C           0.9411   -0.1272   15.1077 C.ar    1  LIG1       -0.0581
     25 H           1.1479   -0.8853   15.6414 H       1  LIG1        0.0620
     26 C           1.9707    0.6600   14.6086 C.ar    1  LIG1       -0.0615
     27 H           2.8735    0.4402   14.8035 H       1  LIG1        0.0618
     28 C           1.6805    1.7640   13.8288 C.ar    1  LIG1       -0.0617
     29 H           2.3846    2.3100   13.4976 H       1  LIG1        0.0618
     30 C           0.3726    2.0732   13.5321 C.ar    1  LIG1       -0.0615
     31 H           0.1736    2.8259   12.9887 H       1  LIG1        0.0618
     32 C          -0.6551    1.2855   14.0273 C.ar    1  LIG1       -0.0581
     33 H          -1.5551    1.5031   13.8118 H       1  LIG1        0.0620
@<TRIPOS>BOND
     1    31    30    1
     2    29    28    1
     3    30    28   ar
     4    30    32   ar
     5    22    20    1
     6    33    32    1
     7    28    26   ar
     8    32    23   ar
     9    21    20    1
    10    20     3    1
    11    20    18    1
    12    26    27    1
    13    26    24   ar
    14    23    24   ar
    15    23    18    1
    16     3     4    1
    17    24    25    1
    18    18    19    1
    19    18    16    1
    20     1    16    1
    21     1     2    1
    22    16    17    1
    23    16     5    1
    24     7     6    1
    25     5     6   ar
    26     5    14   ar
    27     6     8   ar
    28    15    14    1
    29    14    12   ar
    30     8     9    1
    31     8    10   ar
    32    12    10   ar
    33    12    13    1
    34    10    11    1
