@<TRIPOS>MOLECULE
4-(4,5-dihydro-1,3-oxazol-2-yl)phenol
 21 22 0 0 0
SMALL
GASTEIGER

@<TRIPOS>ATOM
      1 O           3.2280    8.0661    6.5969 O.2     1  LIG1       -0.4743
      2 O          -0.3808   13.1958    5.5790 O.3     1  LIG1       -0.5068
      3 H          -0.0550   13.4700    4.8547 H       1  LIG1        0.2921
      4 N           2.4894    8.3435    8.7065 N.2     1  LIG1       -0.2469
      5 C           2.4546    8.7337    7.4905 C.2     1  LIG1        0.2177
      6 C           3.4647    7.2375    8.7925 C.3     1  LIG1        0.0775
      7 H           3.0446    6.4240    9.1697 H       1  LIG1        0.0543
      8 H           4.2384    7.4912    9.3554 H       1  LIG1        0.0543
      9 C           3.8971    7.0069    7.3382 C.3     1  LIG1        0.1107
     10 H           4.8804    7.0775    7.2462 H       1  LIG1        0.0716
     11 H           3.6077    6.1152    7.0203 H       1  LIG1        0.0716
     12 C           1.6831    9.8620    6.9617 C.ar    1  LIG1        0.0364
     13 C           1.9102   10.3392    5.6663 C.ar    1  LIG1       -0.0461
     14 H           2.5429    9.9013    5.1099 H       1  LIG1        0.0626
     15 C           1.2273   11.4389    5.1859 C.ar    1  LIG1       -0.0195
     16 H           1.3918   11.7478    4.3030 H       1  LIG1        0.0654
     17 C           0.2945   12.1011    5.9902 C.ar    1  LIG1        0.1169
     18 C           0.0515   11.6179    7.2819 C.ar    1  LIG1       -0.0195
     19 H          -0.5898   12.0491    7.8338 H       1  LIG1        0.0654
     20 C           0.7386   10.5180    7.7593 C.ar    1  LIG1       -0.0461
     21 H           0.5671   10.2025    8.6397 H       1  LIG1        0.0626
@<TRIPOS>BOND
     1    16    15    1
     2     3     2    1
     3    14    13    1
     4    15    13   ar
     5    15    17   ar
     6     2    17    1
     7    13    12   ar
     8    17    18   ar
     9     1     9    1
    10     1     5    1
    11    12     5    1
    12    12    20   ar
    13    11     9    1
    14    10     9    1
    15    18    20   ar
    16    18    19    1
    17     9     6    1
    18     5     4    2
    19    20    21    1
    20     4     6    1
    21     6     7    1
    22     6     8    1
