@<TRIPOS>MOLECULE
7-Amino-2-tert-butyl-5-methylpyrazolo[1,5-a]pyrimidine
 31 32 0 0 0
SMALL
GASTEIGER

@<TRIPOS>ATOM
      1 N           6.5366    4.7061    8.6066 N.ar    1  LIG1       -0.1677
      2 C           7.2133    4.8187    7.4448 C.ar    1  LIG1        0.0710
      3 C           7.3780    6.1828    6.8067 C.3     1  LIG1        0.0063
      4 C           6.0356    6.9134    6.8099 C.3     1  LIG1       -0.0546
      5 C           8.3974    6.9848    7.6080 C.3     1  LIG1       -0.0546
      6 C           7.8724    6.0332    5.3627 C.3     1  LIG1       -0.0546
      7 C           7.6783    3.5829    6.9763 C.ar    1  LIG1        0.0061
      8 C           7.2352    2.6390    7.8866 C.ar    1  LIG1        0.1580
      9 N           7.3277    1.2905    7.9356 N.ar    1  LIG1       -0.2328
     10 C           6.7118    0.6894    8.9522 C.ar    1  LIG1        0.0438
     11 C           6.8029   -0.8104    8.9960 C.3     1  LIG1       -0.0222
     12 C           6.0371    1.3774    9.9648 C.ar    1  LIG1       -0.0009
     13 C           5.9844    2.7650    9.9546 C.ar    1  LIG1        0.1216
     14 N           5.4396    3.5328   10.8969 N.pl3   1  LIG1       -0.3430
     15 H           5.3702    6.3761    6.3328 H       1  LIG1        0.0239
     16 H           6.1346    7.7814    6.3647 H       1  LIG1        0.0239
     17 H           5.7416    7.0517    7.7352 H       1  LIG1        0.0239
     18 H           8.0803    7.0885    8.5301 H       1  LIG1        0.0239
     19 H           8.5112    7.8681    7.1994 H       1  LIG1        0.0239
     20 H           9.2561    6.5125    7.6097 H       1  LIG1        0.0239
     21 H           8.7321    5.5619    5.3587 H       1  LIG1        0.0239
     22 H           7.9850    6.9207    4.9623 H       1  LIG1        0.0239
     23 H           7.2173    5.5207    4.8447 H       1  LIG1        0.0239
     24 H           8.1929    3.4246    6.1934 H       1  LIG1        0.0673
     25 H           6.7117   -1.1704    8.0898 H       1  LIG1        0.0293
     26 H           6.0859   -1.1650    9.5620 H       1  LIG1        0.0293
     27 H           7.6710   -1.0740    9.3668 H       1  LIG1        0.0293
     28 H           5.6128    0.8932   10.6636 H       1  LIG1        0.0670
     29 N           6.5591    3.3622    8.8632 N.ar    1  LIG1       -0.2006
     30 H           5.0238    3.1052   11.6357 H       1  LIG1        0.1437
     31 H           5.4839    4.4748   10.7831 H       1  LIG1        0.1437
@<TRIPOS>BOND
     1    23     6    1
     2    22     6    1
     3    21     6    1
     4     6     3    1
     5    24     7    1
     6    15     4    1
     7    16     4    1
     8     3     4    1
     9     3     2    1
    10     3     5    1
    11     4    17    1
    12     7     2   ar
    13     7     8   ar
    14    19     5    1
    15     2     1   ar
    16     5    20    1
    17     5    18    1
    18     8     9   ar
    19     8    29   ar
    20     9    10   ar
    21    25    11    1
    22     1    29   ar
    23    29    13   ar
    24    10    11    1
    25    10    12   ar
    26    11    27    1
    27    11    26    1
    28    13    12   ar
    29    13    14    1
    30    12    28    1
    31    31    14    1
    32    14    30    1
