@<TRIPOS>MOLECULE
methyl 2-cyano-2-(trimethylphosphonio)ethenoate
 44 46 0 0 0
SMALL
GASTEIGER

@<TRIPOS>ATOM
      1 P           2.3560    5.4770    1.7826 P.3     1  LIG1        0.1503
      2 O          -0.6338    5.8404    4.2701 O.3     1  LIG1       -0.4641
      3 C           2.2586    5.8241    0.0163 C.ar    1  LIG1        0.1085
      4 C           2.6283    3.7133    1.9698 C.ar    1  LIG1        0.1085
      5 C           0.0132    6.8641    1.9158 C.1     1  LIG1        0.1299
      6 C           2.0901    7.1255   -0.4458 C.ar    1  LIG1       -0.0187
      7 H           1.9889    7.8227    0.1610 H       1  LIG1        0.0657
      8 C           2.4194    4.8112   -0.9050 C.ar    1  LIG1       -0.0187
      9 H           2.5398    3.9376   -0.6109 H       1  LIG1        0.0657
     10 C           4.8424    6.7113    1.5304 C.ar    1  LIG1       -0.0187
     11 H           4.7613    6.5449    0.6192 H       1  LIG1        0.0657
     12 C           3.8355    6.3197    2.3851 C.ar    1  LIG1        0.1085
     13 C           1.5652    2.8487    1.7542 C.ar    1  LIG1       -0.0187
     14 H           0.7198    3.1870    1.5686 H       1  LIG1        0.0657
     15 C           0.8846    5.9615    2.5525 C.3     1  LIG1        0.3355
     16 O           1.3294    4.7777    4.5374 O.2     1  LIG1       -0.2445
     17 C           2.0714    7.3859   -1.7925 C.ar    1  LIG1       -0.0580
     18 H           1.9488    8.2559   -2.0970 H       1  LIG1        0.0619
     19 C           0.5969    5.4660    3.8588 C.2     1  LIG1        0.3731
     20 C           2.2353    6.3622   -2.6914 C.ar    1  LIG1       -0.0615
     21 H           2.2289    6.5412   -3.6037 H       1  LIG1        0.0618
     22 C           4.0610    1.8368    2.3061 C.ar    1  LIG1       -0.0580
     23 H           4.9020    1.4895    2.4974 H       1  LIG1        0.0619
     24 C           2.4054    5.0798   -2.2489 C.ar    1  LIG1       -0.0580
     25 H           2.5120    4.3880   -2.8606 H       1  LIG1        0.0619
     26 C           3.8814    3.2014    2.2373 C.ar    1  LIG1       -0.0187
     27 H           4.6015    3.7739    2.3715 H       1  LIG1        0.0657
     28 C           3.0105    0.9921    2.0955 C.ar    1  LIG1       -0.0615
     29 H           3.1410    0.0723    2.1445 H       1  LIG1        0.0618
     30 N          -0.6936    7.6093    1.4103 N.1     1  LIG1       -0.1913
     31 C           5.9698    7.3443    2.0074 C.ar    1  LIG1       -0.0580
     32 H           6.6404    7.6084    1.4179 H       1  LIG1        0.0619
     33 C           1.7655    1.4859    1.8136 C.ar    1  LIG1       -0.0580
     34 H           1.0567    0.9035    1.6635 H       1  LIG1        0.0619
     35 C           6.1003    7.5812    3.3281 C.ar    1  LIG1       -0.0615
     36 H           6.8560    8.0190    3.6491 H       1  LIG1        0.0618
     37 C           3.9804    6.5602    3.7358 C.ar    1  LIG1       -0.0187
     38 H           3.3143    6.3079    4.3322 H       1  LIG1        0.0657
     39 C           5.1314    7.1842    4.1929 C.ar    1  LIG1       -0.0580
     40 H           5.2414    7.3326    5.1042 H       1  LIG1        0.0619
     41 C          -1.0875    5.3158    5.5223 C.3     1  LIG1        0.0818
     42 H          -0.5778    4.5336    5.7461 H       1  LIG1        0.0661
     43 H          -2.0161    5.0825    5.4530 H       1  LIG1        0.0661
     44 H          -0.9741    5.9778    6.2084 H       1  LIG1        0.0661
@<TRIPOS>BOND
     1    21    20    1
     2    25    24    1
     3    20    24   ar
     4    20    17   ar
     5    24     8   ar
     6    18    17    1
     7    17     6   ar
     8     8     9    1
     9     8     3   ar
    10     6     3   ar
    11     6     7    1
    12     3     1    1
    13    11    10    1
    14    30     5    3
    15    32    31    1
    16    10    31   ar
    17    10    12   ar
    18    14    13    1
    19    34    33    1
    20    13    33   ar
    21    13     4   ar
    22     1     4    1
    23     1    12    1
    24     1    15    1
    25    33    28   ar
    26     5    15    1
    27     4    26   ar
    28    31    35   ar
    29    28    29    1
    30    28    22   ar
    31    26    22   ar
    32    26    27    1
    33    22    23    1
    34    12    37   ar
    35    15    19    1
    36    35    36    1
    37    35    39   ar
    38    37    39   ar
    39    37    38    1
    40    19     2    1
    41    19    16    2
    42    39    40    1
    43     2    41    1
    44    43    41    1
    45    41    42    1
    46    41    44    1
