@<TRIPOS>MOLECULE
3,3,3',3'-tetrabutyl-1,1'-(hexane-1,6--diyldicarbonyl)bis(thiourea),
 84 83 0 0 0
SMALL
GASTEIGER

@<TRIPOS>ATOM
      1 S           9.7432    4.6107   -5.5811 S.2     1  LIG1       -0.0183
      2 O           6.4169    6.1624   -3.6194 O.2     1  LIG1       -0.2754
      3 N           8.6385    5.6892   -3.4364 N.am    1  LIG1       -0.2677
      4 C           7.7752    7.6792   -2.3413 C.3     1  LIG1        0.0243
      5 H           7.2029    8.4263   -2.6450 H       1  LIG1        0.0358
      6 H           8.7211    7.9586   -2.4330 H       1  LIG1        0.0358
      7 H           9.3509    6.0822   -3.3314 H       1  LIG1        0.1565
      8 S           4.4044    0.7173    3.1750 S.2     1  LIG1       -0.0183
      9 O           7.2511    3.4256    3.2570 O.2     1  LIG1       -0.2754
     10 N           7.8079    3.5967   -4.0386 N.am    1  LIG1       -0.3124
     11 C           7.4725    7.3632   -0.8676 C.3     1  LIG1       -0.0448
     12 H           8.0230    6.5901   -0.5856 H       1  LIG1        0.0270
     13 H           7.7371    8.1391   -0.3128 H       1  LIG1        0.0270
     14 N           5.0854    3.1877    3.8763 N.am    1  LIG1       -0.2677
     15 C           6.0041    7.0452   -0.6037 C.3     1  LIG1       -0.0526
     16 H           5.4543    7.7972   -0.9400 H       1  LIG1        0.0265
     17 H           5.7577    6.2393   -1.1238 H       1  LIG1        0.0265
     18 H           4.3046    3.4247    3.6576 H       1  LIG1        0.1565
     19 N           5.9223    1.5167    5.2455 N.am    1  LIG1       -0.3124
     20 C           5.6537    6.8036    0.8596 C.3     1  LIG1       -0.0526
     21 H           5.9979    7.5595    1.3981 H       1  LIG1        0.0265
     22 H           4.6687    6.7923    0.9533 H       1  LIG1        0.0265
     23 C           6.2112    5.5112    1.4236 C.3     1  LIG1       -0.0448
     24 H           7.1997    5.5370    1.3773 H       1  LIG1        0.0270
     25 H           5.8996    4.7539    0.8673 H       1  LIG1        0.0270
     26 C           5.7842    5.2793    2.8677 C.3     1  LIG1        0.0243
     27 H           6.2352    5.9398    3.4500 H       1  LIG1        0.0358
     28 H           4.8070    5.4216    2.9459 H       1  LIG1        0.0358
     29 C           7.5230    6.4716   -3.1984 C.2     1  LIG1        0.2185
     30 C           8.6461    4.5910   -4.3186 C.2     1  LIG1        0.1391
     31 C           7.5576    2.5362   -5.0292 C.3     1  LIG1        0.0137
     32 H           7.9194    1.6805   -4.6880 H       1  LIG1        0.0464
     33 H           8.0358    2.7548   -5.8682 H       1  LIG1        0.0464
     34 C           6.0740    2.3692   -5.3281 C.3     1  LIG1       -0.0374
     35 H           5.9617    1.6334   -5.9809 H       1  LIG1        0.0280
     36 H           5.6096    2.1055   -4.4953 H       1  LIG1        0.0280
     37 C           5.4112    3.6169   -5.8811 C.3     1  LIG1       -0.0545
     38 H           5.8589    3.8752   -6.7251 H       1  LIG1        0.0263
     39 H           5.5282    4.3592   -5.2366 H       1  LIG1        0.0263
     40 C           3.9292    3.4168   -6.1457 C.3     1  LIG1       -0.0652
     41 H           3.8101    2.7203   -6.8245 H       1  LIG1        0.0230
     42 H           3.5377    4.2559   -6.4657 H       1  LIG1        0.0230
     43 H           3.4834    3.1445   -5.3166 H       1  LIG1        0.0230
     44 C           7.1271    3.4373   -2.7397 C.3     1  LIG1        0.0137
     45 H           6.1501    3.5188   -2.8748 H       1  LIG1        0.0464
     46 H           7.4110    4.1672   -2.1350 H       1  LIG1        0.0464
     47 C           7.4273    2.0983   -2.0777 C.3     1  LIG1       -0.0374
     48 H           7.0755    1.3679   -2.6465 H       1  LIG1        0.0280
     49 H           8.4077    1.9834   -2.0060 H       1  LIG1        0.0280
     50 C           6.8075    1.9967   -0.6915 C.3     1  LIG1       -0.0545
     51 H           5.8257    2.0995   -0.7695 H       1  LIG1        0.0263
     52 H           7.1453    2.7403   -0.1320 H       1  LIG1        0.0263
     53 C           7.1142    0.6753    0.0030 C.3     1  LIG1       -0.0652
     54 H           6.7820   -0.0665   -0.5441 H       1  LIG1        0.0230
     55 H           6.6761    0.6575    0.8792 H       1  LIG1        0.0230
     56 H           8.0831    0.5860    0.1201 H       1  LIG1        0.0230
     57 C           6.1186    3.8965    3.3391 C.2     1  LIG1        0.2185
     58 C           5.1918    1.7992    4.1695 C.2     1  LIG1        0.1391
     59 C           6.4140    2.5495    6.1819 C.3     1  LIG1        0.0137
     60 H           6.7869    3.3041    5.6606 H       1  LIG1        0.0464
     61 H           7.1469    2.1669    6.7266 H       1  LIG1        0.0464
     62 C           5.3359    3.0757    7.1072 C.3     1  LIG1       -0.0374
     63 H           4.8969    2.3179    7.5672 H       1  LIG1        0.0280
     64 H           4.6495    3.5524    6.5769 H       1  LIG1        0.0280
     65 C           5.9273    4.0214    8.1383 C.3     1  LIG1       -0.0545
     66 H           6.4766    4.7002    7.6710 H       1  LIG1        0.0263
     67 H           6.5275    3.5078    8.7355 H       1  LIG1        0.0263
     68 C           4.8820    4.7344    8.9867 C.3     1  LIG1       -0.0652
     69 H           4.3059    5.2769    8.4079 H       1  LIG1        0.0230
     70 H           5.3295    5.3152    9.6370 H       1  LIG1        0.0230
     71 H           4.3377    4.0709    9.4605 H       1  LIG1        0.0230
     72 C           6.2261    0.1301    5.6311 C.3     1  LIG1        0.0137
     73 H           5.6522   -0.4869    5.1106 H       1  LIG1        0.0464
     74 H           6.0161    0.0049    6.5902 H       1  LIG1        0.0464
     75 C           7.6928   -0.2221    5.3881 C.3     1  LIG1       -0.0374
     76 H           8.2598    0.4104    5.8949 H       1  LIG1        0.0280
     77 H           7.8651   -1.1299    5.7436 H       1  LIG1        0.0280
     78 C           8.1067   -0.1852    3.9246 C.3     1  LIG1       -0.0545
     79 H           7.7699    0.6512    3.5153 H       1  LIG1        0.0263
     80 H           9.0951   -0.1731    3.8696 H       1  LIG1        0.0263
     81 C           7.5836   -1.3674    3.1331 C.3     1  LIG1       -0.0652
     82 H           7.9114   -2.1991    3.5331 H       1  LIG1        0.0230
     83 H           7.8964   -1.3045    2.2061 H       1  LIG1        0.0230
     84 H           6.6035   -1.3619    3.1476 H       1  LIG1        0.0230
@<TRIPOS>BOND
     1    41    40    1
     2    38    37    1
     3    42    40    1
     4    40    37    1
     5    40    43    1
     6    35    34    1
     7    37    34    1
     8    37    39    1
     9    33    31    1
    10     1    30    2
    11    34    31    1
    12    34    36    1
    13    31    32    1
    14    31    10    1
    15    30    10    1
    16    30     3    1
    17    10    44    1
    18     2    29    2
    19     3     7    1
    20     3    29   am
    21    29     4    1
    22    45    44    1
    23    44    46    1
    24    44    47    1
    25    48    47    1
    26     5     4    1
    27     6     4    1
    28     4    11    1
    29    47    49    1
    30    47    50    1
    31    17    15    1
    32    16    15    1
    33    11    15    1
    34    11    12    1
    35    11    13    1
    36    51    50    1
    37    50    52    1
    38    50    53    1
    39    15    20    1
    40    54    53    1
    41    53    56    1
    42    53    55    1
    43    20    22    1
    44    20    21    1
    45    20    23    1
    46    25    23    1
    47    24    23    1
    48    23    26    1
    49    83    81    1
    50    26    28    1
    51    26    57    1
    52    26    27    1
    53    81    84    1
    54    81    82    1
    55    81    78    1
    56     8    58    2
    57     9    57    2
    58    57    14   am
    59    79    78    1
    60    18    14    1
    61    80    78    1
    62    14    58    1
    63    78    75    1
    64    58    19    1
    65    73    72    1
    66    19    72    1
    67    19    59    1
    68    75    72    1
    69    75    77    1
    70    75    76    1
    71    72    74    1
    72    60    59    1
    73    59    61    1
    74    59    62    1
    75    64    62    1
    76    62    63    1
    77    62    65    1
    78    66    65    1
    79    65    67    1
    80    65    68    1
    81    69    68    1
    82    68    71    1
    83    68    70    1
