@<TRIPOS>MOLECULE
4'-iodo-2,2':6',2''-terpyridine
 29 31 0 0 0
SMALL
GASTEIGER

@<TRIPOS>ATOM
      1 I           2.5653    9.6508    3.9717 I       1  LIG1       -0.0437
      2 N           3.1156   13.6601    6.6889 N.ar    1  LIG1       -0.2436
      3 N           2.6581   15.2602    3.4960 N.ar    1  LIG1       -0.2534
      4 N           3.9152   11.1288    9.1488 N.ar    1  LIG1       -0.2534
      5 C           2.7944   13.7549    5.3870 C.ar    1  LIG1        0.0908
      6 C           2.6126   12.6513    4.5553 C.ar    1  LIG1       -0.0210
      7 H           2.3808   12.7531    3.6400 H       1  LIG1        0.0650
      8 C           2.7870   11.3926    5.1232 C.ar    1  LIG1        0.0175
      9 C           3.1387   11.2702    6.4563 C.ar    1  LIG1       -0.0210
     10 H           3.2818   10.4166    6.8480 H       1  LIG1        0.0650
     11 C           3.2766   12.4323    7.2024 C.ar    1  LIG1        0.0908
     12 C           2.6789   15.1361    4.8463 C.ar    1  LIG1        0.0892
     13 C           2.5776   16.4845    2.9875 C.ar    1  LIG1        0.0283
     14 H           2.5724   16.5742    2.0420 H       1  LIG1        0.0830
     15 C           2.5008   17.6398    3.7507 C.ar    1  LIG1       -0.0436
     16 H           2.4695   18.4951    3.3379 H       1  LIG1        0.0633
     17 C           2.4703   17.5122    5.1544 C.ar    1  LIG1       -0.0583
     18 H           2.3943   18.2778    5.7132 H       1  LIG1        0.0619
     19 C           2.5530   16.2379    5.6971 C.ar    1  LIG1       -0.0342
     20 H           2.5254   16.1155    6.6386 H       1  LIG1        0.0639
     21 C           3.6052   12.3496    8.6665 C.ar    1  LIG1        0.0892
     22 C           4.1685   11.0339   10.4286 C.ar    1  LIG1        0.0283
     23 H           4.3854   10.1769   10.7760 H       1  LIG1        0.0830
     24 C           4.1425   12.1133   11.3237 C.ar    1  LIG1       -0.0436
     25 H           4.3466   11.9909   12.2430 H       1  LIG1        0.0633
     26 C           3.8123   13.3600   10.8283 C.ar    1  LIG1       -0.0583
     27 H           3.7766   14.1170   11.4022 H       1  LIG1        0.0619
     28 C           3.5307   13.4825    9.4629 C.ar    1  LIG1       -0.0342
     29 H           3.2944   14.3239    9.0894 H       1  LIG1        0.0639
@<TRIPOS>BOND
     1    14    13    1
     2    13     3   ar
     3    13    15   ar
     4    16    15    1
     5     3    12   ar
     6     7     6    1
     7    15    17   ar
     8     1     8    1
     9     6     8   ar
    10     6     5   ar
    11    12     5    1
    12    12    19   ar
    13     8     9   ar
    14    17    19   ar
    15    17    18    1
    16     5     2   ar
    17    19    20    1
    18     9    10    1
    19     9    11   ar
    20     2    11   ar
    21    11    21    1
    22    21     4   ar
    23    21    28   ar
    24    29    28    1
    25     4    22   ar
    26    28    26   ar
    27    22    23    1
    28    22    24   ar
    29    26    24   ar
    30    26    27    1
    31    24    25    1
