@<TRIPOS>MOLECULE
1,1'-thiobis(2-naphthol)
 37 40 0 0 0
SMALL
GASTEIGER

@<TRIPOS>ATOM
      1 S           4.2853    2.0942   19.5539 S.3     1  LIG1       -0.0809
      2 O           7.1936    1.5981   19.7829 O.3     1  LIG1       -0.5056
      3 H           8.0560    1.5553   19.7052 H       1  LIG1        0.2922
      4 O           6.0543    3.6237   21.3834 O.3     1  LIG1       -0.5056
      5 H           5.8780    3.5752   20.5744 H       1  LIG1        0.2922
      6 C           5.2259    0.8131   18.7369 C.ar    1  LIG1        0.0619
      7 C           6.5957    0.7187   18.9415 C.ar    1  LIG1        0.1311
      8 C           7.3524   -0.3001   18.3091 C.ar    1  LIG1       -0.0185
      9 H           8.2818   -0.3794   18.4895 H       1  LIG1        0.0654
     10 C           6.7528   -1.1639   17.4454 C.ar    1  LIG1       -0.0505
     11 H           7.2693   -1.8450   17.0319 H       1  LIG1        0.0625
     12 C           5.3669   -1.0642   17.1520 C.ar    1  LIG1       -0.0166
     13 C           4.7444   -1.9415   16.2352 C.ar    1  LIG1       -0.0540
     14 H           5.2631   -2.6096   15.8019 H       1  LIG1        0.0624
     15 C           3.4081   -1.8455   15.9603 C.ar    1  LIG1       -0.0612
     16 H           3.0058   -2.4374   15.3344 H       1  LIG1        0.0618
     17 C           2.6315   -0.8648   16.6084 C.ar    1  LIG1       -0.0611
     18 H           1.7005   -0.8074   16.4251 H       1  LIG1        0.0618
     19 C           3.2002    0.0068   17.5003 C.ar    1  LIG1       -0.0529
     20 H           2.6605    0.6670   17.9196 H       1  LIG1        0.0624
     21 C           4.5887   -0.0626   17.8076 C.ar    1  LIG1       -0.0006
     22 C           4.5547    1.7390   21.2809 C.ar    1  LIG1        0.0619
     23 C           5.4091    2.5663   21.9779 C.ar    1  LIG1        0.1311
     24 C           5.6440    2.3836   23.3588 C.ar    1  LIG1       -0.0185
     25 H           6.2544    2.9478   23.8196 H       1  LIG1        0.0654
     26 C           4.9896    1.3930   24.0236 C.ar    1  LIG1       -0.0505
     27 H           5.1521    1.2730   24.9513 H       1  LIG1        0.0625
     28 C           4.0695    0.5344   23.3664 C.ar    1  LIG1       -0.0166
     29 C           3.3681   -0.4870   24.0564 C.ar    1  LIG1       -0.0540
     30 H           3.5107   -0.6028   24.9882 H       1  LIG1        0.0624
     31 C           2.4883   -1.3095   23.4006 C.ar    1  LIG1       -0.0612
     32 H           2.0279   -1.9911   23.8750 H       1  LIG1        0.0618
     33 C           2.2698   -1.1394   22.0162 C.ar    1  LIG1       -0.0611
     34 H           1.6600   -1.7109   21.5646 H       1  LIG1        0.0618
     35 C           2.9263   -0.1587   21.3161 C.ar    1  LIG1       -0.0529
     36 H           2.7616   -0.0574   20.3858 H       1  LIG1        0.0624
     37 C           3.8456    0.7056   21.9588 C.ar    1  LIG1       -0.0006
@<TRIPOS>BOND
     1    16    15    1
     2    14    13    1
     3    15    13   ar
     4    15    17   ar
     5    13    12   ar
     6    18    17    1
     7    17    19   ar
     8    11    10    1
     9    12    10   ar
    10    12    21   ar
    11    10     8   ar
    12    19    21   ar
    13    19    20    1
    14    21     6   ar
    15     8     9    1
    16     8     7   ar
    17     6     7   ar
    18     6     1    1
    19     7     2    1
    20     1    22    1
    21     3     2    1
    22    36    35    1
    23     5     4    1
    24    22    37   ar
    25    22    23   ar
    26    35    37   ar
    27    35    33   ar
    28     4    23    1
    29    34    33    1
    30    37    28   ar
    31    23    24   ar
    32    33    31   ar
    33    24    25    1
    34    24    26   ar
    35    28    26   ar
    36    28    29   ar
    37    31    32    1
    38    31    29   ar
    39    26    27    1
    40    29    30    1
