@<TRIPOS>MOLECULE
trans-3-(3-pyridyl)acrylic acid
 18 18 0 0 0
SMALL
GASTEIGER

@<TRIPOS>ATOM
      1 N           0.9060   13.9315    6.9175 N.ar    1  LIG1       -0.2627
      2 O           2.0279    8.1415    9.1879 O.3     1  LIG1       -0.4775
      3 H           2.2946    7.2081    9.6156 H       1  LIG1        0.2954
      4 O           1.2499    6.7501    7.6335 O.2     1  LIG1       -0.2458
      5 C           1.4474    7.8774    8.0347 C.2     1  LIG1        0.3296
      6 C           1.0590    9.0641    7.2611 C.2     1  LIG1        0.0229
      7 H           0.6366    8.9282    6.4433 H       1  LIG1        0.0689
      8 C           1.2662   10.3044    7.6436 C.2     1  LIG1       -0.0464
      9 H           1.6902   10.4197    8.4630 H       1  LIG1        0.0626
     10 C           0.9025   11.5251    6.9213 C.ar    1  LIG1       -0.0067
     11 C           1.1755   12.7567    7.4999 C.ar    1  LIG1        0.0347
     12 H           1.5687   12.7664    8.3423 H       1  LIG1        0.0835
     13 C           0.3345   13.9086    5.7141 C.ar    1  LIG1        0.0276
     14 H           0.1417   14.7151    5.2942 H       1  LIG1        0.0829
     15 C           0.0185   12.7348    5.0694 C.ar    1  LIG1       -0.0430
     16 H          -0.3861   12.7568    4.2321 H       1  LIG1        0.0633
     17 C           0.3028   11.5270    5.6672 C.ar    1  LIG1       -0.0517
     18 H           0.0972   10.7266    5.2396 H       1  LIG1        0.0624
@<TRIPOS>BOND
     1    16    15    1
     2    15    17   ar
     3    15    13   ar
     4    18    17    1
     5    14    13    1
     6    17    10   ar
     7    13     1   ar
     8     7     6    1
     9     1    11   ar
    10    10    11   ar
    11    10     8    1
    12     6     8    2
    13     6     5    1
    14    11    12    1
    15     4     5    2
    16     8     9    1
    17     5     2    1
    18     2     3    1
