@<TRIPOS>MOLECULE
3'-Methylacetanilide
 22 22 0 0 0
SMALL
GASTEIGER

@<TRIPOS>ATOM
      1 O          -0.5019    6.9833    1.0494 O.2     1  LIG1       -0.2758
      2 N           0.3552    9.0107    1.6321 N.am    1  LIG1       -0.2857
      3 H           0.1458    9.8033    1.9578 H       1  LIG1        0.1548
      4 C           1.7241    8.8192    1.3492 C.ar    1  LIG1        0.0336
      5 C           2.6028    9.7701    1.8803 C.ar    1  LIG1       -0.0376
      6 H           2.2588   10.4721    2.4210 H       1  LIG1        0.0639
      7 C           3.9701    9.7070    1.6316 C.ar    1  LIG1       -0.0487
      8 C           4.4567    8.6596    0.8474 C.ar    1  LIG1       -0.0587
      9 H           5.3884    8.5969    0.6711 H       1  LIG1        0.0620
     10 C           3.5915    7.7103    0.3235 C.ar    1  LIG1       -0.0598
     11 H           3.9401    7.0031   -0.2064 H       1  LIG1        0.0618
     12 C           2.2231    7.7757    0.5607 C.ar    1  LIG1       -0.0405
     13 H           1.6372    7.1241    0.1942 H       1  LIG1        0.0636
     14 C           4.8926   10.7472    2.2053 C.3     1  LIG1       -0.0397
     15 H           4.5160   11.6388    2.0499 H       1  LIG1        0.0278
     16 H           5.7684   10.6818    1.7715 H       1  LIG1        0.0278
     17 H           4.9935   10.5987    3.1690 H       1  LIG1        0.0278
     18 C          -0.6619    8.1257    1.4796 C.2     1  LIG1        0.2141
     19 C          -2.0212    8.6312    1.8798 C.3     1  LIG1        0.0125
     20 H          -2.6121    8.6346    1.0976 H       1  LIG1        0.0323
     21 H          -1.9408    9.5425    2.2318 H       1  LIG1        0.0323
     22 H          -2.3970    8.0461    2.5706 H       1  LIG1        0.0323
@<TRIPOS>BOND
     1    11    10    1
     2    13    12    1
     3    10    12   ar
     4    10     8   ar
     5    12     4   ar
     6     9     8    1
     7     8     7   ar
     8     1    18    2
     9    20    19    1
    10     4     2    1
    11     4     5   ar
    12    18     2   am
    13    18    19    1
    14     7     5   ar
    15     7    14    1
    16     2     3    1
    17    16    14    1
    18    19    21    1
    19    19    22    1
    20     5     6    1
    21    15    14    1
    22    14    17    1
