@<TRIPOS>MOLECULE
5-ethyl-1-methyl-5-phenylpyrimidine-2,4,6(1<i>H</i>,3<i>H</i>,5<i>H</i>)-\ trione
 32 33 0 0 0
SMALL
GASTEIGER

@<TRIPOS>ATOM
      1 N          -0.7283   -0.4969   10.1338 N.am    1  LIG1       -0.2277
      2 H          -1.7834   -0.6747    7.1848 H       1  LIG1        0.1591
      3 C          -1.1560   -0.8786   11.4912 C.3     1  LIG1        0.0124
      4 H          -1.8773   -1.5091   11.4340 H       1  LIG1        0.0434
      5 H          -1.4512   -0.0972   11.9658 H       1  LIG1        0.0434
      6 H          -0.4184   -1.2777   11.9585 H       1  LIG1        0.0434
      7 C          -1.4675   -1.0005    9.0771 C.2     1  LIG1        0.3146
      8 O          -2.3376   -1.8238    9.2260 O.2     1  LIG1       -0.2518
      9 N          -1.1739   -0.5013    7.8282 N.am    1  LIG1       -0.2386
     10 C          -0.3024    0.5086    7.5504 C.2     1  LIG1        0.2399
     11 O          -0.3331    1.0913    6.4817 O.2     1  LIG1       -0.2739
     12 C           0.7712    0.7749    8.6003 C.3     1  LIG1        0.1481
     13 C           0.3003    0.4143   10.0047 C.2     1  LIG1        0.2422
     14 O           0.8516    0.8735   10.9931 O.2     1  LIG1       -0.2736
     15 C           1.2290    2.2506    8.5657 C.3     1  LIG1       -0.0293
     16 H           1.9677    2.3594    9.1838 H       1  LIG1        0.0280
     17 H           1.5597    2.4508    7.6763 H       1  LIG1        0.0280
     18 C           0.1510    3.2562    8.9188 C.3     1  LIG1       -0.0636
     19 H           0.5137    4.1435    8.8728 H       1  LIG1        0.0230
     20 H          -0.1662    3.0857    9.8083 H       1  LIG1        0.0230
     21 H          -0.5776    3.1756    8.2984 H       1  LIG1        0.0230
     22 C           1.9610   -0.1422    8.2164 C.ar    1  LIG1       -0.0237
     23 C           2.5451    0.0109    6.9632 C.ar    1  LIG1       -0.0571
     24 H           2.2172    0.6508    6.3738 H       1  LIG1        0.0621
     25 C           3.6166   -0.7901    6.5905 C.ar    1  LIG1       -0.0615
     26 H           4.0048   -0.6791    5.7530 H       1  LIG1        0.0618
     27 C           4.1099   -1.7442    7.4471 C.ar    1  LIG1       -0.0617
     28 H           4.8207   -2.2847    7.1885 H       1  LIG1        0.0618
     29 C           3.5455   -1.8907    8.6862 C.ar    1  LIG1       -0.0615
     30 H           3.8817   -2.5306    9.2704 H       1  LIG1        0.0618
     31 C           2.4774   -1.0956    9.0782 C.ar    1  LIG1       -0.0571
     32 H           2.1069   -1.2044    9.9241 H       1  LIG1        0.0621
@<TRIPOS>BOND
     1    26    25    1
     2    24    23    1
     3    11    10    2
     4    25    23   ar
     5    25    27   ar
     6    23    22   ar
     7     2     9    1
     8    28    27    1
     9    27    29   ar
    10    10     9   am
    11    10    12    1
    12    17    15    1
    13     9     7   am
    14    22    12    1
    15    22    31   ar
    16    21    18    1
    17    15    12    1
    18    15    18    1
    19    15    16    1
    20    12    13    1
    21    29    31   ar
    22    29    30    1
    23    19    18    1
    24    18    20    1
    25     7     8    2
    26     7     1   am
    27    31    32    1
    28    13     1   am
    29    13    14    2
    30     1     3    1
    31     4     3    1
    32     3     6    1
    33     3     5    1
