@<TRIPOS>MOLECULE
(5S)-5-(3-fluoro-4-phenoxyphenyl)-3-(4-methoxyphenyl)-1-phenyl- 4,5-dihydro-1H-pyrazole
 56 60 0 0 0
SMALL
GASTEIGER

@<TRIPOS>ATOM
      1 F           7.5338    2.7107    2.9296 F       1  LIG1       -0.2016
      2 O           8.8273    0.3265    2.4073 O.3     1  LIG1       -0.4531
      3 O          19.5054    0.0829    1.5604 O.3     1  LIG1       -0.4951
      4 N          12.9045    0.4417    5.5054 N.pl3   1  LIG1       -0.2165
      5 N          14.1310    0.0012    5.0229 N.2     1  LIG1       -0.1831
      6 C          14.6341    0.8776    4.2284 C.2     1  LIG1        0.0687
      7 C          13.7600    2.0830    4.0854 C.3     1  LIG1        0.0163
      8 C          12.6340    1.8296    5.0839 C.3     1  LIG1        0.0767
      9 C          11.2536    2.0513    4.5221 C.ar    1  LIG1       -0.0212
     10 C          10.5649    3.2059    4.8028 C.ar    1  LIG1       -0.0538
     11 C           9.3217    3.4432    4.2452 C.ar    1  LIG1       -0.0225
     12 C           8.7717    2.5057    3.4349 C.ar    1  LIG1        0.1654
     13 C           9.4250    1.3401    3.1363 C.ar    1  LIG1        0.1638
     14 C          10.6685    1.1218    3.6812 C.ar    1  LIG1       -0.0114
     15 C           8.3792    0.5845    1.1222 C.ar    1  LIG1        0.1286
     16 C           8.8682    1.5589    0.3214 C.ar    1  LIG1       -0.0193
     17 C           8.3697    1.7086   -0.9472 C.ar    1  LIG1       -0.0583
     18 C           7.4134    0.8874   -1.4132 C.ar    1  LIG1       -0.0615
     19 C           6.9463   -0.0841   -0.6124 C.ar    1  LIG1       -0.0583
     20 C           7.4337   -0.2586    0.6581 C.ar    1  LIG1       -0.0193
     21 C          12.5039   -0.0645    6.7531 C.ar    1  LIG1        0.0522
     22 C          11.3107    0.3455    7.3111 C.ar    1  LIG1       -0.0389
     23 C          10.8645   -0.2108    8.4979 C.ar    1  LIG1       -0.0600
     24 C          11.6123   -1.1489    9.1427 C.ar    1  LIG1       -0.0616
     25 C          12.7942   -1.5434    8.6006 C.ar    1  LIG1       -0.0600
     26 C          13.2417   -1.0124    7.4233 C.ar    1  LIG1       -0.0389
     27 C          15.9053    0.6496    3.5437 C.ar    1  LIG1       -0.0020
     28 C          16.6923   -0.4642    3.8231 C.ar    1  LIG1       -0.0494
     29 C          17.8908   -0.6841    3.1905 C.ar    1  LIG1       -0.0193
     30 C          18.3395    0.2160    2.2534 C.ar    1  LIG1        0.1201
     31 C          17.5788    1.3280    1.9628 C.ar    1  LIG1       -0.0193
     32 C          16.3833    1.5388    2.6057 C.ar    1  LIG1       -0.0494
     33 C          20.2292   -1.1316    1.7003 C.3     1  LIG1        0.0788
     34 H          14.2233    2.9024    4.2547 H       1  LIG1        0.0351
     35 H          13.4647    2.1423    3.1953 H       1  LIG1        0.0351
     36 H          12.7290    2.3669    5.8694 H       1  LIG1        0.0573
     37 H          10.9513    3.8642    5.3673 H       1  LIG1        0.0622
     38 H           8.8493    4.2442    4.4163 H       1  LIG1        0.0647
     39 H          11.0821    0.3052    3.5548 H       1  LIG1        0.0658
     40 H           9.4194    2.1365    0.6276 H       1  LIG1        0.0654
     41 H           8.6648    2.4129   -1.4835 H       1  LIG1        0.0619
     42 H           7.0867    1.0135   -2.3261 H       1  LIG1        0.0618
     43 H           6.3253   -0.6220   -0.8559 H       1  LIG1        0.0619
     44 H           7.1254   -0.9329    1.2781 H       1  LIG1        0.0654
     45 H          10.7699    1.0423    6.8451 H       1  LIG1        0.0637
     46 H          10.0090    0.1209    8.8118 H       1  LIG1        0.0618
     47 H          11.2849   -1.5606    9.9358 H       1  LIG1        0.0618
     48 H          13.2765   -2.2171    9.0210 H       1  LIG1        0.0618
     49 H          14.0756   -1.2209    7.0715 H       1  LIG1        0.0637
     50 H          16.3567   -1.0884    4.4696 H       1  LIG1        0.0625
     51 H          18.4164   -1.5146    3.4178 H       1  LIG1        0.0654
     52 H          17.8883    1.9234    1.2914 H       1  LIG1        0.0654
     53 H          15.8814    2.3035    2.3755 H       1  LIG1        0.0625
     54 H          20.5404   -1.2163    2.6038 H       1  LIG1        0.0660
     55 H          20.9804   -1.1276    1.1031 H       1  LIG1        0.0660
     56 H          19.6552   -1.8722    1.4892 H       1  LIG1        0.0660
@<TRIPOS>BOND
     1    42    18    1
     2    41    17    1
     3    18    17   ar
     4    18    19   ar
     5    17    16   ar
     6    43    19    1
     7    19    20   ar
     8    16    40    1
     9    16    15   ar
    10    20    15   ar
    11    20    44    1
    12    55    33    1
    13    15     2    1
    14    52    31    1
    15    56    33    1
    16     3    33    1
    17     3    30    1
    18    33    54    1
    19    31    30   ar
    20    31    32   ar
    21    30    29   ar
    22    53    32    1
    23     2    13    1
    24    32    27   ar
    25     1    12    1
    26    13    12   ar
    27    13    14   ar
    28    29    51    1
    29    29    28   ar
    30    35     7    1
    31    12    11   ar
    32    27    28   ar
    33    27     6    1
    34    39    14    1
    35    14     9   ar
    36    28    50    1
    37     7     6    1
    38     7    34    1
    39     7     8    1
    40     6     5    2
    41    11    38    1
    42    11    10   ar
    43     9    10   ar
    44     9     8    1
    45    10    37    1
    46     5     4    1
    47     8     4    1
    48     8    36    1
    49     4    21    1
    50    21    22   ar
    51    21    26   ar
    52    45    22    1
    53    49    26    1
    54    22    23   ar
    55    26    25   ar
    56    23    46    1
    57    23    24   ar
    58    25    48    1
    59    25    24   ar
    60    24    47    1
