@<TRIPOS>MOLECULE
4-propyl-3,4,5,6-tetrahydro-2H-naphtho[1,2-b]pyran-5,6-dione
 35 37 0 0 0
SMALL
GASTEIGER

@<TRIPOS>ATOM
      1 O           1.8011    1.1310   36.6239 O.2     1  LIG1       -0.2832
      2 O           3.4109    1.8163   34.5514 O.2     1  LIG1       -0.2834
      3 O           0.7708    5.6669   33.8523 O.2     1  LIG1       -0.4909
      4 C           1.5723    2.1699   36.0333 C.2     1  LIG1        0.2334
      5 C           2.4483    2.5381   34.8161 C.2     1  LIG1        0.2328
      6 C           2.1308    3.7233   34.0612 C.2     1  LIG1        0.0485
      7 C           1.1169    4.5151   34.4782 C.2     1  LIG1        0.1355
      8 C           0.2990    4.2831   35.6748 C.ar    1  LIG1        0.0280
      9 C           0.5014    3.1036   36.4243 C.ar    1  LIG1        0.0362
     10 C          -0.2964    2.8363   37.5280 C.ar    1  LIG1       -0.0501
     11 H          -0.1437    2.0533   38.0438 H       1  LIG1        0.0625
     12 C          -1.3161    3.7076   37.8826 C.ar    1  LIG1       -0.0610
     13 H          -1.8745    3.5121   38.6251 H       1  LIG1        0.0618
     14 C          -1.5163    4.8720   37.1420 C.ar    1  LIG1       -0.0611
     15 H          -2.2031    5.4778   37.3928 H       1  LIG1        0.0618
     16 C          -0.7254    5.1506   36.0469 C.ar    1  LIG1       -0.0504
     17 H          -0.8802    5.9399   35.5443 H       1  LIG1        0.0625
     18 C           1.3287    5.8687   32.5374 C.3     1  LIG1        0.0902
     19 H           1.1893    6.8086   32.2580 H       1  LIG1        0.0697
     20 H           0.8659    5.2830   31.8860 H       1  LIG1        0.0697
     21 C           2.8134    5.5541   32.5366 C.3     1  LIG1       -0.0116
     22 H           3.2767    6.1265   33.1997 H       1  LIG1        0.0304
     23 H           3.1943    5.7426   31.6418 H       1  LIG1        0.0304
     24 C           3.0284    4.0852   32.8881 C.3     1  LIG1       -0.0055
     25 H           3.9730    3.9963   33.2036 H       1  LIG1        0.0352
     26 C           2.8694    3.1427   31.6872 C.3     1  LIG1       -0.0461
     27 H           2.7262    2.2216   32.0216 H       1  LIG1        0.0271
     28 H           2.0631    3.4075   31.1768 H       1  LIG1        0.0271
     29 C           4.0639    3.1446   30.7505 C.3     1  LIG1       -0.0554
     30 H           4.1986    4.0644   30.4095 H       1  LIG1        0.0263
     31 H           4.8712    2.8937   31.2659 H       1  LIG1        0.0263
     32 C           3.9297    2.2052   29.5697 C.3     1  LIG1       -0.0653
     33 H           4.7275    2.2746   29.0066 H       1  LIG1        0.0230
     34 H           3.1372    2.4480   29.0454 H       1  LIG1        0.0230
     35 H           3.8378    1.2848   29.8941 H       1  LIG1        0.0230
@<TRIPOS>BOND
     1    33    32    1
     2    34    32    1
     3    32    35    1
     4    32    29    1
     5    30    29    1
     6    29    31    1
     7    29    26    1
     8    28    26    1
     9    23    21    1
    10    26    27    1
    11    26    24    1
    12    20    18    1
    13    19    18    1
    14    21    18    1
    15    21    24    1
    16    21    22    1
    17    18     3    1
    18    24    25    1
    19    24     6    1
    20     3     7    1
    21     6     7    2
    22     6     5    1
    23     7     8    1
    24     2     5    2
    25     5     4    1
    26    17    16    1
    27     8    16   ar
    28     8     9   ar
    29     4     9    1
    30     4     1    2
    31    16    14   ar
    32     9    10   ar
    33    14    15    1
    34    14    12   ar
    35    10    12   ar
    36    10    11    1
    37    12    13    1
