@<TRIPOS>MOLECULE
1,3-Dibromo-5,5-dimethyl-2,4-imidazolidinedione
 13 13 0 0 0
SMALL
GASTEIGER

@<TRIPOS>ATOM
      1 N           4.6238    1.9801    7.0760 N.am    1  LIG1       -0.2032
      2 C           5.1406    1.9801    5.8334 C.2     1  LIG1        0.3318
      3 N           6.5410    1.9801    6.0275 N.am    1  LIG1       -0.1556
      4 C           6.9087    1.9801    7.3393 C.2     1  LIG1        0.2598
      5 C           5.6167    1.9801    8.1622 C.3     1  LIG1        0.1544
      6 BR          2.8046    1.9801    7.3452 Br      1  LIG1        0.0414
      7 O           4.5856    1.9801    4.7735 O.2     1  LIG1       -0.2503
      8 BR          7.6672    1.9801    4.5791 Br      1  LIG1        0.0480
      9 O           8.0283    1.9801    7.7901 O.2     1  LIG1       -0.2718
     10 C           5.5250    0.7208    9.0059 C.3     1  LIG1       -0.0314
     11 H           4.7044    0.7279    9.5031 H       1  LIG1        0.0256
     12 H           6.2675    0.6875    9.6136 H       1  LIG1        0.0256
     13 H           5.5457   -0.0499    8.4338 H       1  LIG1        0.0256
@<TRIPOS>BOND
     1     8     3    1
     2     7     2    2
     3     2     3   am
     4     2     1   am
     5     3     4   am
     6     1     6    1
     7     1     5    1
     8     4     9    2
     9     4     5    1
    10     5    10    1
    11    13    10    1
    12    10    11    1
    13    10    12    1
