@<TRIPOS>MOLECULE
tetramethyl <i>cis</i>,<i>cis</i>-3,7-diacetoxybicyclo[3.3.0]octa-2,6-diene- 2,4-<i>exo</i>,6,8-<i>exo</i>-tetracarboxylate
 54 55 0 0 0
SMALL
GASTEIGER

@<TRIPOS>ATOM
      1 O           1.5222   17.9010    4.1571 O.3     1  LIG1       -0.4291
      2 C           1.2600   19.1817    4.5468 C.2     1  LIG1        0.3089
      3 C           0.6181   19.9509    3.4445 C.3     1  LIG1        0.0336
      4 H          -0.3468   19.7795    3.4455 H       1  LIG1        0.0342
      5 H           0.9991   19.6707    2.5856 H       1  LIG1        0.0342
      6 H           0.7811   20.9075    3.5769 H       1  LIG1        0.0342
      7 O           1.5076   19.5858    5.6419 O.2     1  LIG1       -0.2507
      8 C           2.3192   17.1368    4.9808 C.2     1  LIG1        0.1334
      9 C           1.6999   15.9919    5.7316 C.3     1  LIG1        0.1223
     10 H           1.1518   15.4227    5.1193 H       1  LIG1        0.0500
     11 C           0.8511   16.5381    6.8614 C.2     1  LIG1        0.3180
     12 O          -0.3697   16.8775    6.4149 O.3     1  LIG1       -0.4674
     13 O           1.2045   16.6745    7.9944 O.2     1  LIG1       -0.2500
     14 C          -1.2547   17.4475    7.4044 C.3     1  LIG1        0.0817
     15 H          -1.3115   16.8457    8.1756 H       1  LIG1        0.0661
     16 H          -2.1461   17.5655    7.0153 H       1  LIG1        0.0661
     17 H          -0.9049   18.3168    7.6927 H       1  LIG1        0.0661
     18 C           2.9487   15.2210    6.2288 C.3     1  LIG1        0.0223
     19 H           2.8363   14.9100    7.1721 H       1  LIG1        0.0371
     20 C           3.3162   14.0828    5.3088 C.2     1  LIG1        0.0802
     21 C           2.3527   12.9933    5.0409 C.2     1  LIG1        0.3385
     22 O           2.7672   12.1446    4.0999 O.3     1  LIG1       -0.4646
     23 O           1.3077   12.8787    5.6223 O.2     1  LIG1       -0.2452
     24 C           1.8307   11.1129    3.7389 C.3     1  LIG1        0.0820
     25 H           1.6476   10.5489    4.5203 H       1  LIG1        0.0661
     26 H           2.2104   10.5636    3.0217 H       1  LIG1        0.0661
     27 H           0.9956   11.5220    3.4302 H       1  LIG1        0.0661
     28 C           4.5563   14.2062    4.8677 C.2     1  LIG1        0.1334
     29 O           5.1991   13.3778    3.9555 O.3     1  LIG1       -0.4291
     30 C           5.6823   12.1785    4.4245 C.2     1  LIG1        0.3089
     31 C           6.1407   11.3211    3.2978 C.3     1  LIG1        0.0336
     32 H           6.8536   10.7247    3.6105 H       1  LIG1        0.0342
     33 H           6.4824   11.8882    2.5744 H       1  LIG1        0.0342
     34 H           5.3899   10.7854    2.9677 H       1  LIG1        0.0342
     35 O           5.7100   11.9179    5.5888 O.2     1  LIG1       -0.2507
     36 C           5.3020   15.3798    5.4341 C.3     1  LIG1        0.1223
     37 H           5.7518   15.9040    4.7118 H       1  LIG1        0.0500
     38 C           6.3051   14.8625    6.4366 C.2     1  LIG1        0.3180
     39 O           7.4407   14.5145    5.8253 O.3     1  LIG1       -0.4674
     40 O           6.1135   14.7491    7.6128 O.2     1  LIG1       -0.2500
     41 C           8.4021   13.8256    6.6628 C.3     1  LIG1        0.0817
     42 H           8.6013   14.3743    7.4503 H       1  LIG1        0.0661
     43 H           9.2263   13.6712    6.1554 H       1  LIG1        0.0661
     44 H           8.0292   12.9659    6.9500 H       1  LIG1        0.0661
     45 C           4.1611   16.1957    6.0872 C.3     1  LIG1        0.0223
     46 H           4.4385   16.5611    6.9755 H       1  LIG1        0.0371
     47 C           3.6246   17.2860    5.1896 C.2     1  LIG1        0.0802
     48 C           4.4172   18.4024    4.6334 C.2     1  LIG1        0.3385
     49 O           5.6733   18.3982    5.1090 O.3     1  LIG1       -0.4646
     50 O           4.0047   19.2269    3.8622 O.2     1  LIG1       -0.2452
     51 C           6.5258   19.4313    4.5682 C.3     1  LIG1        0.0820
     52 H           6.5024   19.3945    3.5891 H       1  LIG1        0.0661
     53 H           7.4449   19.2920    4.8779 H       1  LIG1        0.0661
     54 H           6.2088   20.3090    4.8697 H       1  LIG1        0.0661
@<TRIPOS>BOND
     1    33    31    1
     2     5     3    1
     3    34    31    1
     4    26    24    1
     5    31    32    1
     6    31    30    1
     7    27    24    1
     8     3     4    1
     9     3     6    1
    10     3     2    1
    11    52    51    1
    12    24    22    1
    13    24    25    1
    14    50    48    2
    15    29    30    1
    16    29    28    1
    17    22    21    1
    18     1     2    1
    19     1     8    1
    20    30    35    2
    21     2     7    2
    22    51    54    1
    23    51    53    1
    24    51    49    1
    25    48    49    1
    26    48    47    1
    27    37    36    1
    28    28    20    2
    29    28    36    1
    30     8    47    2
    31     8     9    1
    32    21    20    1
    33    21    23    2
    34    10     9    1
    35    47    45    1
    36    20    18    1
    37    36    45    1
    38    36    38    1
    39     9    18    1
    40     9    11    1
    41    39    38    1
    42    39    41    1
    43    45    18    1
    44    45    46    1
    45    43    41    1
    46    18    19    1
    47    12    11    1
    48    12    14    1
    49    38    40    2
    50    41    44    1
    51    41    42    1
    52    11    13    2
    53    16    14    1
    54    14    17    1
    55    14    15    1
