@<TRIPOS>MOLECULE
(2<i>S</i>,3<i>R</i>,4<i>S</i>,5<i>R</i>)-Diethyl 2-(10,10-dimethyl-3,3-dioxo-3\l^6^-thia-4-azatricyclo[5.2.1.0^1,5^]decan-4- ylcarbonyl)-5-phenylpyrrolidine-3,4-dicarboxylate
 73 77 0 0 0
SMALL
GASTEIGER

@<TRIPOS>ATOM
      1 S          -1.6218    6.5263    8.7839 S.O2    1  LIG1        0.0485
      2 O           0.2412    4.7708   11.5480 O.2     1  LIG1       -0.2723
      3 O           0.7560    7.8168   11.8600 O.2     1  LIG1       -0.2504
      4 O          -0.0257    8.9796   13.6032 O.3     1  LIG1       -0.4647
      5 O           0.1435    6.0712   14.6836 O.2     1  LIG1       -0.2504
      6 O          -0.9784    7.1819   16.2697 O.3     1  LIG1       -0.4647
      7 O          -1.9499    7.8689    9.1365 O.2     1  LIG1       -0.1549
      8 O          -2.6991    5.5863    8.7849 O.2     1  LIG1       -0.1549
      9 N          -2.1471    5.0674   12.8215 N.3     1  LIG1       -0.2974
     10 H          -1.4590    4.7305   13.1318 H       1  LIG1        0.1233
     11 N          -0.3720    5.9850    9.7559 N.am    1  LIG1       -0.1712
     12 C          -0.5323    5.5523   11.0807 C.2     1  LIG1        0.2524
     13 C          -1.7148    6.1003   11.8647 C.3     1  LIG1        0.1007
     14 H          -2.4639    6.2608   11.2221 H       1  LIG1        0.0565
     15 C          -1.4829    7.4264   12.6834 C.3     1  LIG1        0.0948
     16 H          -2.1242    8.1051   12.3265 H       1  LIG1        0.0442
     17 C          -1.9411    7.0832   14.1138 C.3     1  LIG1        0.0905
     18 H          -2.4864    7.8279   14.5008 H       1  LIG1        0.0441
     19 C          -2.8227    5.8211   13.8724 C.3     1  LIG1        0.0473
     20 H          -3.6984    6.1330   13.5023 H       1  LIG1        0.0518
     21 C          -0.1017    8.0578   12.6404 C.2     1  LIG1        0.3131
     22 C           1.2549    9.6527   13.8160 C.3     1  LIG1        0.0897
     23 H           1.9644    9.2075   13.2863 H       1  LIG1        0.0694
     24 H           1.1942   10.5967   13.5238 H       1  LIG1        0.0694
     25 C           1.5814    9.5909   15.2389 C.3     1  LIG1       -0.0306
     26 H           0.8345    9.9507   15.7610 H       1  LIG1        0.0262
     27 H           2.3864   10.1209   15.4134 H       1  LIG1        0.0262
     28 H           1.7416    8.6587   15.4978 H       1  LIG1        0.0262
     29 C          -0.8005    6.7241   15.0302 C.2     1  LIG1        0.3129
     30 C           0.0400    6.8526   17.2465 C.3     1  LIG1        0.0897
     31 H           0.0241    7.5195   17.9783 H       1  LIG1        0.0694
     32 H           0.9322    6.8867   16.8182 H       1  LIG1        0.0694
     33 C          -0.1899    5.4835   17.8138 C.3     1  LIG1       -0.0306
     34 H          -1.1213    5.4057   18.1113 H       1  LIG1        0.0262
     35 H           0.4094    5.3404   18.5748 H       1  LIG1        0.0262
     36 H          -0.0101    4.8104   17.1243 H       1  LIG1        0.0262
     37 C          -3.1172    5.0382   15.1322 C.ar    1  LIG1       -0.0296
     38 C          -3.9802    5.6009   16.0743 C.ar    1  LIG1       -0.0571
     39 H          -4.3930    6.4365   15.8912 H       1  LIG1        0.0621
     40 C          -4.2415    4.9556   17.2733 C.ar    1  LIG1       -0.0615
     41 H          -4.8187    5.3585   17.9111 H       1  LIG1        0.0618
     42 C          -3.6663    3.7309   17.5423 C.ar    1  LIG1       -0.0617
     43 H          -3.8547    3.2808   18.3574 H       1  LIG1        0.0618
     44 C          -2.8134    3.1655   16.6145 C.ar    1  LIG1       -0.0615
     45 H          -2.4073    2.3270   16.8010 H       1  LIG1        0.0618
     46 C          -2.5414    3.8038   15.4170 C.ar    1  LIG1       -0.0571
     47 H          -1.9587    3.3975   14.7869 H       1  LIG1        0.0621
     48 C           0.7509    5.4085    8.9926 C.3     1  LIG1        0.0565
     49 H           0.6333    4.4186    8.9076 H       1  LIG1        0.0525
     50 C           0.7139    6.0712    7.5838 C.3     1  LIG1        0.0175
     51 C           1.4618    5.0709    6.6806 C.3     1  LIG1       -0.0433
     52 H           1.1050    4.1533    6.7876 H       1  LIG1        0.0272
     53 H           1.4060    5.3334    5.7276 H       1  LIG1        0.0272
     54 C           2.9005    5.1765    7.2068 C.3     1  LIG1       -0.0490
     55 H           3.5280    5.4099    6.4758 H       1  LIG1        0.0268
     56 H           3.1909    4.3241    7.6173 H       1  LIG1        0.0268
     57 C           2.8395    6.3011    8.2580 C.3     1  LIG1       -0.0335
     58 H           3.7140    6.7540    8.4341 H       1  LIG1        0.0307
     59 C           2.1496    5.7252    9.5160 C.3     1  LIG1       -0.0286
     60 H           2.6088    4.9090    9.8374 H       1  LIG1        0.0287
     61 H           2.1185    6.3921   10.2480 H       1  LIG1        0.0287
     62 C          -0.7267    6.4039    7.2371 C.3     1  LIG1        0.0929
     63 H          -1.1166    5.6926    6.6689 H       1  LIG1        0.0525
     64 H          -0.7737    7.2611    6.7447 H       1  LIG1        0.0525
     65 C           1.7387    7.2270    7.6861 C.3     1  LIG1       -0.0231
     66 C           1.3399    8.3906    8.6229 C.3     1  LIG1       -0.0589
     67 H           2.0781    9.0338    8.6759 H       1  LIG1        0.0235
     68 H           1.1477    8.0391    9.5170 H       1  LIG1        0.0235
     69 H           0.5425    8.8365    8.2682 H       1  LIG1        0.0235
     70 C           2.0840    7.8619    6.3270 C.3     1  LIG1       -0.0589
     71 H           2.4244    7.1715    5.7219 H       1  LIG1        0.0235
     72 H           2.7677    8.5524    6.4543 H       1  LIG1        0.0235
     73 H           1.2780    8.2662    5.9422 H       1  LIG1        0.0235
@<TRIPOS>BOND
     1    71    70    1
     2    53    51    1
     3    73    70    1
     4    70    72    1
     5    70    65    1
     6    55    54    1
     7    63    62    1
     8    51    52    1
     9    51    54    1
    10    51    50    1
    11    64    62    1
    12    54    56    1
    13    54    57    1
    14    62    50    1
    15    62     1    1
    16    50    65    1
    17    50    48    1
    18    65    57    1
    19    65    66    1
    20    57    58    1
    21    57    59    1
    22    69    66    1
    23    66    67    1
    24    66    68    1
    25     1     8    2
    26     1     7    2
    27     1    11    1
    28    49    48    1
    29    48    59    1
    30    48    11    1
    31    59    60    1
    32    59    61    1
    33    11    12   am
    34    12     2    2
    35    12    13    1
    36    14    13    1
    37     3    21    2
    38    13    15    1
    39    13     9    1
    40    16    15    1
    41    21    15    1
    42    21     4    1
    43    15    17    1
    44     9    10    1
    45     9    19    1
    46    23    22    1
    47    20    19    1
    48    24    22    1
    49     4    22    1
    50    22    25    1
    51    19    17    1
    52    19    37    1
    53    17    18    1
    54    17    29    1
    55     5    29    2
    56    47    46    1
    57    29     6    1
    58    37    46   ar
    59    37    38   ar
    60    25    27    1
    61    25    28    1
    62    25    26    1
    63    46    44   ar
    64    39    38    1
    65    38    40   ar
    66     6    30    1
    67    44    45    1
    68    44    42   ar
    69    32    30    1
    70    36    33    1
    71    30    33    1
    72    30    31    1
    73    40    42   ar
    74    40    41    1
    75    42    43    1
    76    33    34    1
    77    33    35    1
