@<TRIPOS>MOLECULE
6-chloro-9-[(4-diethylammonio-2-methylbutyl)amino]-2-methoxyacridinium 3-carboxylato-4-hydroxybenzenesulfonate dihydrate
 84 84 0 0 0
SMALL
GASTEIGER

@<TRIPOS>ATOM
      1 CL          5.6352   33.2111   10.5004 Cl      1  LIG1       -0.0835
      2 O          13.1233   28.9540    4.7642 O.2     1  LIG1       -0.4951
      3 N           9.9190   31.6447    8.3092 N.pl3   1  LIG1       -0.3282
      4 N           8.1970   28.5271    6.2341 N.pl3   1  LIG1       -0.3405
      5 N           9.6031   24.0908    9.0843 N.4     1  LIG1        0.2348
      6 C          10.9141   29.2554    5.7037 C.2     1  LIG1       -0.0126
      7 C          12.2456   29.5558    5.6077 C.2     1  LIG1        0.1203
      8 C          12.8091   30.5583    6.4082 C.2     1  LIG1       -0.0215
      9 C          12.0400   31.2388    7.2874 C.2     1  LIG1       -0.0504
     10 C           7.8762   32.3178    9.3203 C.ar    1  LIG1       -0.0218
     11 C           6.5356   32.1953    9.4214 C.ar    1  LIG1        0.0428
     12 C           5.8240   31.2656    8.6535 C.ar    1  LIG1       -0.0427
     13 C           6.5043   30.4368    7.8101 C.ar    1  LIG1       -0.0497
     14 C           8.6906   29.6086    6.8341 C.2     1  LIG1        0.0421
     15 C          10.0773   29.9491    6.6147 C.2     1  LIG1        0.0072
     16 C          10.6708   30.9547    7.4007 C.3     1  LIG1        0.1073
     17 C           8.5904   31.4726    8.4404 C.ar    1  LIG1        0.0385
     18 C           7.9139   30.4722    7.6984 C.ar    1  LIG1        0.0171
     19 C          12.6791   27.7840    4.0669 C.3     1  LIG1        0.0788
     20 C           7.0417   27.6776    6.5647 C.3     1  LIG1        0.0180
     21 C           5.9664   27.8004    5.4974 C.3     1  LIG1       -0.0467
     22 C           7.5058   26.2232    6.6856 C.3     1  LIG1       -0.0300
     23 C           8.5087   25.9629    7.7938 C.3     1  LIG1       -0.0109
     24 C           8.8060   24.4795    7.8741 C.3     1  LIG1       -0.0319
     25 C           9.5215   22.6114    9.3377 C.3     1  LIG1       -0.0348
     26 C          10.2019   21.7801    8.2798 C.3     1  LIG1       -0.0245
     27 C          11.0009   24.6291    9.0313 C.3     1  LIG1       -0.0348
     28 C          11.8045   24.3496   10.2781 C.3     1  LIG1       -0.0245
     29 S           5.3107   22.1916    9.4387 S.3     2  LIG2        0.1397
     30 O           3.9354   27.8207    8.3107 O.3     2  LIG2       -0.5059
     31 O           6.0136   21.6561    8.3000 O.2     2  LIG2       -0.1397
     32 O           4.0080   21.5827    9.6032 O.2     2  LIG2       -0.1397
     33 O           6.0832   22.1848   10.6409 O.3     2  LIG2       -0.0427
     34 O           6.4196   26.9570   11.5024 O.co2   2  LIG2       -0.2405
     35 O           5.2460   28.4608   10.4066 O.co2   2  LIG2       -0.2405
     36 C           5.1143   26.2254    9.6694 C.ar    2  LIG2        0.1063
     37 C           4.3014   26.5446    8.5745 C.ar    2  LIG2        0.1311
     38 C           3.8674   25.5356    7.7091 C.ar    2  LIG2       -0.0175
     39 C           4.1947   24.2256    7.9541 C.ar    2  LIG2       -0.0308
     40 C           4.9670   23.8820    9.0602 C.ar    2  LIG2        0.1206
     41 C           5.4267   24.8872    9.8953 C.ar    2  LIG2       -0.0166
     42 C           5.6292   27.2732   10.6017 C.2     2  LIG2        0.3901
     43 O           8.6687   25.4141   11.2438 O.3     3  HOH3       -0.4105
     44 O           9.1650   27.2260    3.8677 O.3     4  HOH4       -0.4105
     45 H          10.5528   28.5882    5.1656 H       1  LIG1        0.0658
     46 H          13.7143   30.7566    6.3347 H       1  LIG1        0.0652
     47 H          12.4203   31.8980    7.8214 H       1  LIG1        0.0599
     48 H           8.3265   32.9529    9.8267 H       1  LIG1        0.0651
     49 H           4.8969   31.2132    8.7179 H       1  LIG1        0.0632
     50 H           6.0273   29.8282    7.2935 H       1  LIG1        0.0625
     51 H          10.3567   32.2496    8.8118 H       1  LIG1        0.1473
     52 H           8.6564   28.1316    5.5750 H       1  LIG1        0.1464
     53 H           6.6707   27.9651    7.4252 H       1  LIG1        0.0495
     54 H           5.2156   27.2494    5.7343 H       1  LIG1        0.0247
     55 H           6.3193   27.5116    4.6530 H       1  LIG1        0.0247
     56 H           5.6839   28.7146    5.4321 H       1  LIG1        0.0247
     57 H           6.7286   25.6640    6.8350 H       1  LIG1        0.0285
     58 H           7.9024   25.9539    5.8415 H       1  LIG1        0.0285
     59 H           9.3275   26.4536    7.6161 H       1  LIG1        0.0317
     60 H           8.1483   26.2716    8.6403 H       1  LIG1        0.0317
     61 H           7.9682   23.9921    7.8816 H       1  LIG1        0.0814
     62 H           9.2947   24.2142    7.0791 H       1  LIG1        0.0814
     63 H           9.2316   24.5504    9.7716 H       1  LIG1        0.2033
     64 H           8.5880   22.3542    9.3867 H       1  LIG1        0.0812
     65 H           9.9271   22.4189   10.1974 H       1  LIG1        0.0812
     66 H          10.0414   20.8489    8.4524 H       1  LIG1        0.0281
     67 H          11.1470   21.9501    8.2982 H       1  LIG1        0.0281
     68 H           9.8519   22.0118    7.4170 H       1  LIG1        0.0281
     69 H          10.9622   25.5899    8.8925 H       1  LIG1        0.0812
     70 H          11.4573   24.2389    8.2696 H       1  LIG1        0.0812
     71 H          11.2655   24.5257   11.0520 H       1  LIG1        0.0281
     72 H          12.0807   23.4307   10.2811 H       1  LIG1        0.0281
     73 H          12.5793   24.9144   10.2924 H       1  LIG1        0.0281
     74 H          12.3947   27.1230    4.7010 H       1  LIG1        0.0660
     75 H          13.3997   27.4314    3.5390 H       1  LIG1        0.0660
     76 H          11.9447   28.0144    3.4920 H       1  LIG1        0.0660
     77 H           4.2474   28.2458    9.0671 H       2  LIG2        0.2922
     78 H           3.3541   25.7534    6.9647 H       2  LIG2        0.0655
     79 H           3.8975   23.5603    7.3752 H       2  LIG2        0.0638
     80 H           5.9578   24.6615   10.6252 H       2  LIG2        0.0647
     81 H           8.0365   25.8429   11.3032 H       0  HOH0        0.2052
     82 H           9.1074   25.2444   11.9261 H       0  HOH0        0.2052
     83 H           8.7823   27.2155    3.0632 H       0  HOH0        0.2052
     84 H           9.4582   26.4166    4.0230 H       0  HOH0        0.2052
@<TRIPOS>BOND
     1    83    44    1
     2    76    19    1
     3    75    19    1
     4    44    84    1
     5    19    74    1
     6    19     2    1
     7    55    21    1
     8     2     7    1
     9    45     6    1
    10    56    21    1
    11    21    54    1
    12    21    20    1
    13    52     4    1
    14     7     6    2
    15     7     8    1
    16     6    15    1
    17    58    22    1
    18     4    20    1
    19     4    14    1
    20    46     8    1
    21     8     9    2
    22    20    22    1
    23    20    53    1
    24    15    14    2
    25    15    16    1
    26    22    57    1
    27    22    23    1
    28    14    18    1
    29    78    38    1
    30    62    24    1
    31     9    16    1
    32     9    47    1
    33    50    13    1
    34    79    39    1
    35    16     3    1
    36    68    26    1
    37    59    23    1
    38    18    13   ar
    39    18    17   ar
    40    38    39   ar
    41    38    37   ar
    42    23    24    1
    43    23    60    1
    44    13    12   ar
    45    24    61    1
    46    24     5    1
    47    39    40   ar
    48    70    27    1
    49    26    67    1
    50    26    66    1
    51    26    25    1
    52    31    29    2
    53     3    17    1
    54     3    51    1
    55    30    37    1
    56    30    77    1
    57    17    10   ar
    58    37    36   ar
    59    12    49    1
    60    12    11   ar
    61    69    27    1
    62    27     5    1
    63    27    28    1
    64    40    29    1
    65    40    41   ar
    66     5    25    1
    67     5    63    1
    68    10    11   ar
    69    10    48    1
    70    25    64    1
    71    25    65    1
    72    11     1    1
    73    29    32    2
    74    29    33    1
    75    36    41   ar
    76    36    42    1
    77    41    80    1
    78    28    72    1
    79    28    73    1
    80    28    71    1
    81    35    42   ar
    82    42    34   ar
    83    43    81    1
    84    43    82    1
