@<TRIPOS>MOLECULE
6,7-dicyanodipyrido[f,h]quinoxalin-1-ium chloride dihydrate
 36 36 0 0 0
SMALL
GASTEIGER

@<TRIPOS>ATOM
      1 N           9.2079   -4.0161    7.5024 N.ar    1  LIG1       -0.2530
      2 C           8.6295   -4.8758    6.6629 C.ar    1  LIG1        0.0283
      3 H           8.6851   -5.8018    6.8657 H       1  LIG1        0.0830
      4 C           7.9492   -4.4987    5.5069 C.ar    1  LIG1       -0.0429
      5 H           7.5424   -5.1529    4.9508 H       1  LIG1        0.0633
      6 C           7.8760   -3.1608    5.1810 C.ar    1  LIG1       -0.0490
      7 H           7.4245   -2.8761    4.3955 H       1  LIG1        0.0625
      8 C           8.4849   -2.2307    6.0366 C.ar    1  LIG1        0.0297
      9 C           8.4413   -0.7982    5.7874 C.ar    1  LIG1        0.1003
     10 C           9.0075    0.1136    6.7093 C.ar    1  LIG1        0.0970
     11 C           9.6476   -0.3798    7.9231 C.ar    1  LIG1        0.0110
     12 C          10.1620    0.4749    8.9028 C.3     1  LIG1        0.0180
     13 H          10.1303    1.4175    8.7806 H       1  LIG1        0.0402
     14 C          10.7169   -0.0580   10.0484 C.2     1  LIG1       -0.0618
     15 H          11.0443    0.5136   10.7334 H       1  LIG1        0.0591
     16 C          10.7919   -1.4381   10.1905 C.2     1  LIG1       -0.0095
     17 H          11.1846   -1.8139   10.9703 H       1  LIG1        0.0778
     18 N          10.3124   -2.2413    9.2345 N.pl3   1  LIG1       -0.3189
     19 H          10.3556   -3.1783    9.3955 H       1  LIG1        0.1517
     20 C           9.1294   -2.7079    7.1821 C.ar    1  LIG1        0.0945
     21 C           9.7154   -1.7583    8.1126 C.ar    1  LIG1        0.0632
     22 N           7.8254   -0.3731    4.6693 N.ar    1  LIG1       -0.2313
     23 N           8.9607    1.4419    6.5113 N.ar    1  LIG1       -0.2316
     24 C           7.8146    0.9390    4.4675 C.ar    1  LIG1        0.1765
     25 C           8.3794    1.8439    5.3857 C.ar    1  LIG1        0.1765
     26 C           7.1926    1.4054    3.2443 C.1     1  LIG1        0.1220
     27 C           8.3314    3.2628    5.0938 C.1     1  LIG1        0.1220
     28 N           6.6987    1.7861    2.2863 N.1     1  LIG1       -0.1892
     29 N           8.2521    4.3695    4.8010 N.1     1  LIG1       -0.1892
     30 CL         10.3408   -7.4789    8.4853 Cl      2  LIG2        0.0000
     31 O          10.8570   -4.7412   10.1151 O.3     3  HOH3       -0.4105
     32 H          10.6570   -5.3511    9.5377 H       0  HOH0        0.2052
     33 H          11.7865   -4.6755   10.1791 H       0  HOH0        0.2052
     34 O          11.2546   -9.0010   11.1200 O.3     4  HOH4       -0.4105
     35 H          10.6147   -9.2085   11.7548 H       0  HOH0        0.2052
     36 H          10.7947   -8.5015   10.4615 H       0  HOH0        0.2052
@<TRIPOS>BOND
     1    28    26    3
     2    26    24    1
     3     7     6    1
     4    24    22   ar
     5    24    25   ar
     6    22     9   ar
     7    29    27    3
     8     5     4    1
     9    27    25    1
    10     6     4   ar
    11     6     8   ar
    12    25    23   ar
    13     4     2   ar
    14     9     8   ar
    15     9    10   ar
    16     8    20   ar
    17    23    10   ar
    18     2     3    1
    19     2     1   ar
    20    10    11   ar
    21    20     1   ar
    22    20    21   ar
    23    11    21   ar
    24    11    12    1
    25    21    18    1
    26    13    12    1
    27    12    14    1
    28    18    19    1
    29    18    16    1
    30    32    31    1
    31    14    16    2
    32    14    15    1
    33    31    33    1
    34    16    17    1
    35    36    34    1
    36    34    35    1
