@<TRIPOS>MOLECULE
1-(diaminomethylene)thiouron-1-ium bromide
 15 13 0 0 0
SMALL
GASTEIGER

@<TRIPOS>ATOM
      1 BR          2.6466    5.0053    0.9965 Br      1  LIG1        0.0000
      2 S           0.3696    1.4925    4.6285 S.2     2  LIG2       -0.0007
      3 C           0.7216    2.3434    3.2275 C.2     2  LIG2        0.1942
      4 N           1.7250    2.0377    2.3435 N.am    2  LIG2       -0.1891
      5 H           1.9841    2.7397    1.8710 H       2  LIG2        0.2530
      6 N           0.0477    3.4300    2.8905 N.am    2  LIG2       -0.3278
      7 H           0.2043    3.8549    2.1956 H       2  LIG2        0.1453
      8 H          -0.6550    3.6685    3.4938 H       2  LIG2        0.1453
      9 C           2.4493    0.8945    2.1956 C.2     2  LIG2        0.3388
     10 N           3.3467    0.9054    1.2448 N.pl3   2  LIG2       -0.2933
     11 H           3.7929    0.2697    1.1264 H       2  LIG2        0.2544
     12 H           3.4298    1.6553    0.7637 H       2  LIG2        0.2544
     13 N           2.2697   -0.1477    2.9287 N.pl3   2  LIG2       -0.2933
     14 H           2.8887   -0.8790    2.7588 H       2  LIG2        0.2544
     15 H           1.7075   -0.0290    3.5129 H       2  LIG2        0.2544
@<TRIPOS>BOND
     1    12    10    1
     2    11    10    1
     3    10     9    2
     4     5     4    1
     5     7     6    1
     6     9     4    1
     7     9    13    1
     8     4     3    1
     9    14    13    1
    10     6     3    1
    11     6     8    1
    12    13    15    1
    13     3     2    2
