@<TRIPOS>MOLECULE
(2E)-3-(2-fluoro-4-phenoxyphenyl)-1-(4-methoxyphenyl)prop-2-en-1-one
 43 45 0 0 0
SMALL
GASTEIGER

@<TRIPOS>ATOM
      1 F           8.8097    6.7119    5.4712 F       1  LIG1       -0.2016
      2 O          10.1776   -1.4596    4.3918 O.2     1  LIG1       -0.2873
      3 O           6.9572    4.9345    6.4056 O.3     1  LIG1       -0.4531
      4 O          11.9571   -2.9622   -1.5220 O.3     1  LIG1       -0.4951
      5 C          11.6550   -2.4945   -0.2734 C.ar    1  LIG1        0.1201
      6 C          11.6765   -3.2434    0.8915 C.ar    1  LIG1       -0.0193
      7 C          11.3213   -2.6588    2.0904 C.ar    1  LIG1       -0.0475
      8 C          10.9605   -1.3232    2.1652 C.ar    1  LIG1        0.0219
      9 C          10.9958   -0.5826    0.9895 C.ar    1  LIG1       -0.0475
     10 C          11.3283   -1.1598   -0.2111 C.ar    1  LIG1       -0.0193
     11 C          10.4690   -0.7476    3.4450 C.2     1  LIG1        0.1861
     12 C          10.3234    0.7207    3.5448 C.2     1  LIG1       -0.0138
     13 C           9.4635    1.2938    4.3686 C.2     1  LIG1       -0.0508
     14 C           9.2771    2.7325    4.5931 C.ar    1  LIG1       -0.0213
     15 C           8.2158    3.1706    5.3911 C.ar    1  LIG1       -0.0093
     16 C           8.0532    4.5063    5.6708 C.ar    1  LIG1        0.1640
     17 C           8.9525    5.4083    5.1586 C.ar    1  LIG1        0.1654
     18 C           9.9969    5.0178    4.3597 C.ar    1  LIG1       -0.0222
     19 C          10.1502    3.6771    4.0827 C.ar    1  LIG1       -0.0516
     20 C           7.1882    5.5037    7.6542 C.ar    1  LIG1        0.1286
     21 C           8.3349    5.2908    8.3712 C.ar    1  LIG1       -0.0193
     22 C           8.4489    5.8498    9.6368 C.ar    1  LIG1       -0.0583
     23 C           7.4348    6.6135   10.1596 C.ar    1  LIG1       -0.0615
     24 C           6.2948    6.8125    9.4275 C.ar    1  LIG1       -0.0583
     25 C           6.1601    6.2614    8.1717 C.ar    1  LIG1       -0.0193
     26 C          12.2226   -4.3479   -1.6967 C.3     1  LIG1        0.0788
     27 H          11.8998   -4.1284    0.8728 H       1  LIG1        0.0654
     28 H          11.3592   -3.1534    2.8857 H       1  LIG1        0.0626
     29 H          10.7659    0.3442    0.9975 H       1  LIG1        0.0626
     30 H          11.3186   -0.6878   -1.0332 H       1  LIG1        0.0654
     31 H          10.9002    1.2688    2.9837 H       1  LIG1        0.0656
     32 H           8.8752    0.6974    4.8986 H       1  LIG1        0.0625
     33 H           7.6123    2.5560    5.7358 H       1  LIG1        0.0661
     34 H          10.6248    5.6846    4.0257 H       1  LIG1        0.0647
     35 H          10.9054    3.3818    3.5804 H       1  LIG1        0.0624
     36 H           9.0343    4.7749    8.0158 H       1  LIG1        0.0654
     37 H           9.2748    5.7024   10.1356 H       1  LIG1        0.0619
     38 H           7.5470    7.0164   11.0351 H       1  LIG1        0.0618
     39 H           5.5856    7.3495    9.8060 H       1  LIG1        0.0619
     40 H           5.3661    6.3839    7.6150 H       1  LIG1        0.0654
     41 H          13.0286   -4.6072   -1.1222 H       1  LIG1        0.0660
     42 H          12.4542   -4.4601   -2.6452 H       1  LIG1        0.0660
     43 H          11.5064   -4.8784   -1.3538 H       1  LIG1        0.0660
@<TRIPOS>BOND
     1    42    26    1
     2    26     4    1
     3    26    43    1
     4    26    41    1
     5     4     5    1
     6    30    10    1
     7     5    10   ar
     8     5     6   ar
     9    10     9   ar
    10    27     6    1
    11     6     7   ar
    12     9    29    1
    13     9     8   ar
    14     7     8   ar
    15     7    28    1
    16     8    11    1
    17    31    12    1
    18    11    12    1
    19    11     2    2
    20    12    13    2
    21    35    19    1
    22    34    18    1
    23    19    18   ar
    24    19    14   ar
    25    18    17   ar
    26    13    14    1
    27    13    32    1
    28    14    15   ar
    29    17     1    1
    30    17    16   ar
    31    15    16   ar
    32    15    33    1
    33    16     3    1
    34     3    20    1
    35    40    25    1
    36    20    25   ar
    37    20    21   ar
    38    36    21    1
    39    25    24   ar
    40    21    22   ar
    41    24    39    1
    42    24    23   ar
    43    22    37    1
    44    22    23   ar
    45    23    38    1
