@<TRIPOS>MOLECULE
2016892.cif
 36 37 0 0 0
SMALL
GASTEIGER

@<TRIPOS>ATOM
      1 F           8.1314   13.3526    4.1523 F       1  LIG1       -0.1659
      2 F           7.3493   13.8223    2.2466 F       1  LIG1       -0.1659
      3 F           6.0900   13.9400    3.9509 F       1  LIG1       -0.1659
      4 F           4.8221    8.1394    0.7160 F       1  LIG1        0.0000
      5 F           6.5510    7.2561    1.4918 F       2  LIG2        0.0000
      6 F           6.6692    9.0530    0.5024 F       3  LIG3        0.0000
      7 O           5.2869    8.6904    4.9160 O.3     1  LIG1       -0.3555
      8 O           9.3707   11.8723    2.1404 O.3     1  LIG1       -0.4214
      9 O          11.1340   11.9487    3.5437 O.2     1  LIG1       -0.2445
     10 C           5.7413    9.1074    2.6450 C.3     1  LIG1        0.0703
     11 C           4.7611   10.1924    2.8708 C.3     1  LIG1        0.0545
     12 C           5.3536   11.5133    3.2028 C.2     1  LIG1       -0.0202
     13 C           6.6425   11.7876    3.2227 C.2     1  LIG1        0.0663
     14 C           7.6427   10.6764    3.1463 C.2     1  LIG1        0.0183
     15 C           6.9006    9.4442    3.5237 C.3     1  LIG1        0.0602
     16 C           6.5263    9.2002    4.7621 C.3     1  LIG1        0.1466
     17 C           4.6925    8.8594    3.6444 C.3     1  LIG1        0.1226
     18 C           5.9280    8.3875    1.3480 C.3     1  LIG1        0.1962
     19 C           7.0664   13.1973    3.3965 C.3     1  LIG1        0.4181
     20 C           8.9011   10.6865    2.7214 C.2     1  LIG1        0.1446
     21 C           9.7689    9.5128    2.5675 C.ar    1  LIG1        0.0344
     22 C          10.5091    9.3736    1.4243 C.ar    1  LIG1        0.0030
     23 C          11.2626    8.2382    1.2129 C.ar    1  LIG1        0.0001
     24 C          11.2912    7.2178    2.1215 C.ar    1  LIG1        0.0000
     25 C          10.5739    7.3710    3.2847 C.ar    1  LIG1        0.0001
     26 C           9.8299    8.5165    3.5226 C.ar    1  LIG1        0.0030
     27 C          10.5367   12.3967    2.5996 C.2     1  LIG1        0.3457
     28 C          10.9682   13.5623    1.7929 C.ar    1  LIG1        0.0760
     29 C          10.2643   13.9999    0.7072 C.ar    1  LIG1        0.0065
     30 C          10.7187   15.0950   -0.0199 C.ar    1  LIG1        0.0002
     31 C          11.8494   15.7444    0.3674 C.ar    1  LIG1        0.0000
     32 C          12.5667   15.3249    1.4442 C.ar    1  LIG1        0.0002
     33 C          12.1114   14.2258    2.1835 C.ar    1  LIG1        0.0065
     34 F           7.1826    8.1838    1.0514 F       3  LIG3        0.0000
     35 F           5.3250    7.2158    1.4940 F       1  LIG1       -0.2342
     36 F           5.3346    9.0449    0.3873 F       1  LIG1        0.0000
@<TRIPOS>BOND
     1    30    31   ar
     2    30    29   ar
     3    31    32   ar
     4    36     4    1
     5     6    34    1
     6    29    28   ar
     7    23    22   ar
     8    23    24   ar
     9    18    35    1
    10    18    10    1
    11    22    21   ar
    12    32    33   ar
    13    28    33   ar
    14    28    27    1
    15    24    25   ar
    16     8    27    1
    17     8    20    1
    18     2    19    1
    19    21    20    1
    20    21    26   ar
    21    27     9    2
    22    10    11    1
    23    10    15    1
    24    10    17    1
    25    20    14    2
    26    11    12    1
    27    11    17    1
    28    14    13    1
    29    14    15    1
    30    12    13    2
    31    13    19    1
    32    25    26   ar
    33    19     3    1
    34    19     1    1
    35    15    16    1
    36    17     7    1
    37    16     7    1
