@<TRIPOS>MOLECULE
2-[(3,4-dimethylphenyl)carbamoyl]benzenesulfonamide
 37 38 0 0 0
SMALL
GASTEIGER

@<TRIPOS>ATOM
      1 S           3.1180    2.3974    3.9711 S.O2    1  LIG1        0.0567
      2 O           0.9534    0.1684    3.1092 O.2     1  LIG1       -0.2698
      3 O           4.2568    3.1342    4.4410 O.2     1  LIG1       -0.1532
      4 O           2.1972    3.0120    3.0647 O.2     1  LIG1       -0.1532
      5 N           3.6915    1.0802    3.2350 N.3     1  LIG1       -0.2035
      6 H           4.3993    0.7822    3.5946 H       1  LIG1        0.1442
      7 H           3.0677    0.5140    3.1251 H       1  LIG1        0.1442
      8 N          -0.8562    1.4535    3.6108 N.am    1  LIG1       -0.2814
      9 H          -1.2008    1.8923    4.1290 H       1  LIG1        0.1551
     10 C           2.1711    1.8677    5.3835 C.ar    1  LIG1        0.1171
     11 C           2.6990    2.0815    6.6512 C.ar    1  LIG1       -0.0346
     12 H           3.5466    2.4972    6.7521 H       1  LIG1        0.0637
     13 C           1.9799    1.6844    7.7667 C.ar    1  LIG1       -0.0599
     14 H           2.3468    1.8118    8.6336 H       1  LIG1        0.0618
     15 C           0.7394    1.1071    7.6281 C.ar    1  LIG1       -0.0609
     16 H           0.2546    0.8344    8.3988 H       1  LIG1        0.0618
     17 C           0.1918    0.9216    6.3606 C.ar    1  LIG1       -0.0477
     18 H          -0.6747    0.5431    6.2712 H       1  LIG1        0.0626
     19 C           0.9046    1.2859    5.2305 C.ar    1  LIG1        0.0633
     20 C           0.3421    0.9335    3.8712 C.2     1  LIG1        0.2501
     21 C          -1.5889    1.4066    2.3853 C.ar    1  LIG1        0.0339
     22 C          -2.9372    1.7507    2.4364 C.ar    1  LIG1       -0.0373
     23 H          -3.3467    1.9050    3.2805 H       1  LIG1        0.0639
     24 C          -3.6986    1.8744    1.2810 C.ar    1  LIG1       -0.0458
     25 C          -3.0868    1.6532    0.0337 C.ar    1  LIG1       -0.0474
     26 C          -1.7580    1.2725    0.0083 C.ar    1  LIG1       -0.0568
     27 H          -1.3501    1.0966   -0.8323 H       1  LIG1        0.0621
     28 C          -0.9924    1.1354    1.1670 C.ar    1  LIG1       -0.0402
     29 H          -0.0830    0.8620    1.1205 H       1  LIG1        0.0636
     30 C          -5.1440    2.2492    1.3925 C.3     1  LIG1       -0.0394
     31 H          -5.3037    3.0813    0.9003 H       1  LIG1        0.0278
     32 H          -5.3761    2.3765    2.3365 H       1  LIG1        0.0278
     33 H          -5.6962    1.5340    1.0136 H       1  LIG1        0.0278
     34 C          -3.8588    1.8141   -1.2565 C.3     1  LIG1       -0.0395
     35 H          -3.2365    1.7925   -2.0143 H       1  LIG1        0.0278
     36 H          -4.3341    2.6708   -1.2484 H       1  LIG1        0.0278
     37 H          -4.5051    1.0825   -1.3439 H       1  LIG1        0.0278
@<TRIPOS>BOND
     1    35    34    1
     2    37    34    1
     3    34    36    1
     4    34    25    1
     5    27    26    1
     6    26    25   ar
     7    26    28   ar
     8    25    24   ar
     9    31    30    1
    10    33    30    1
    11    29    28    1
    12    28    21   ar
    13    24    30    1
    14    24    22   ar
    15    30    32    1
    16    21    22   ar
    17    21     8    1
    18    22    23    1
    19     4     1    2
    20     2    20    2
    21     7     5    1
    22     5     6    1
    23     5     1    1
    24     8    20   am
    25     8     9    1
    26    20    19    1
    27     1     3    2
    28     1    10    1
    29    19    10   ar
    30    19    17   ar
    31    10    11   ar
    32    18    17    1
    33    17    15   ar
    34    11    12    1
    35    11    13   ar
    36    15    13   ar
    37    15    16    1
    38    13    14    1
