@<TRIPOS>MOLECULE
(<i>S</i>,<i>S</i>)-2-[(2-Hydroxypropanoyl)oxy]propanoic acid
 42 40 0 0 0
SMALL
GASTEIGER

@<TRIPOS>ATOM
      1 O           6.5274    4.9645    1.8033 O.2     1  LIG1       -0.2468
      2 O           7.1346    3.2662    3.1186 O.3     1  LIG1       -0.4781
      3 H           7.8093    3.8577    3.4068 H       1  LIG1        0.2952
      4 O           3.9559    3.8319    1.7629 O.3     1  LIG1       -0.4484
      5 O           3.9612    4.0507    3.9968 O.2     1  LIG1       -0.2479
      6 O           1.2595    4.8447    3.6759 O.3     1  LIG1       -0.3809
      7 H           1.5889    5.0818    4.4431 H       1  LIG1        0.2105
      8 C           6.3266    3.8678    2.2720 C.2     1  LIG1        0.3457
      9 C           5.1380    3.0049    1.8696 C.3     1  LIG1        0.1960
     10 H           4.9938    2.2773    2.5403 H       1  LIG1        0.0850
     11 C           5.3775    2.4150    0.4929 C.3     1  LIG1       -0.0171
     12 H           5.4832    3.1395   -0.1581 H       1  LIG1        0.0271
     13 H           4.6133    1.8568    0.2389 H       1  LIG1        0.0271
     14 H           6.1903    1.8685    0.5081 H       1  LIG1        0.0271
     15 C           3.4726    4.3016    2.9224 C.2     1  LIG1        0.3365
     16 C           2.2521    5.1900    2.7193 C.3     1  LIG1        0.1488
     17 H           1.8852    5.0233    1.8035 H       1  LIG1        0.0707
     18 C           2.6502    6.6544    2.8243 C.3     1  LIG1       -0.0285
     19 H           1.8526    7.2174    2.7355 H       1  LIG1        0.0260
     20 H           3.2842    6.8730    2.1097 H       1  LIG1        0.0260
     21 H           3.0697    6.8168    3.6944 H       1  LIG1        0.0260
     22 O           2.1212    5.4476    6.2331 O.2     2  LIG2       -0.2468
     23 O           3.0270    4.3231    7.9506 O.3     2  LIG2       -0.4781
     24 H           3.6862    4.9460    7.8549 H       2  LIG2        0.2952
     25 O          -0.1400    3.9001    6.4177 O.3     2  LIG2       -0.4484
     26 O          -0.3638    5.1621    8.2681 O.2     2  LIG2       -0.2479
     27 O          -2.8539    5.8660    7.5980 O.3     2  LIG2       -0.3809
     28 H          -2.3356    6.0565    8.2553 H       2  LIG2        0.2105
     29 C           2.1199    4.5125    7.0087 C.2     2  LIG2        0.3457
     30 C           1.0930    3.3968    6.9780 C.3     2  LIG2        0.1960
     31 H           0.9319    3.0575    7.9054 H       2  LIG2        0.0850
     32 C           1.5467    2.2606    6.0867 C.3     2  LIG2       -0.0171
     33 H           1.7335    2.6054    5.1884 H       2  LIG2        0.0271
     34 H           0.8405    1.5827    6.0363 H       2  LIG2        0.0271
     35 H           2.3595    1.8591    6.4585 H       2  LIG2        0.0271
     36 C          -0.7674    4.7912    7.1902 C.2     2  LIG2        0.3365
     37 C          -2.0383    5.3153    6.5612 C.3     2  LIG2        0.1488
     38 H          -2.5263    4.5559    6.1305 H       2  LIG2        0.0707
     39 C          -1.7192    6.3627    5.5045 C.3     2  LIG2       -0.0285
     40 H          -2.5517    6.7676    5.1850 H       2  LIG2        0.0260
     41 H          -1.2528    5.9382    4.7543 H       2  LIG2        0.0260
     42 H          -1.1472    7.0569    5.8949 H       2  LIG2        0.0260
@<TRIPOS>BOND
     1    12    11    1
     2    13    11    1
     3    11    14    1
     4    11     9    1
     5     4     9    1
     6     4    15    1
     7     1     8    2
     8    17    16    1
     9     9     8    1
    10     9    10    1
    11    20    18    1
    12     8     2    1
    13    16    18    1
    14    16    15    1
    15    16     6    1
    16    19    18    1
    17    18    21    1
    18    15     5    2
    19     2     3    1
    20     6     7    1
    21    41    39    1
    22    40    39    1
    23    33    32    1
    24    39    42    1
    25    39    37    1
    26    34    32    1
    27    32    35    1
    28    32    30    1
    29    38    37    1
    30    22    29    2
    31    25    30    1
    32    25    36    1
    33    37    36    1
    34    37    27    1
    35    30    29    1
    36    30    31    1
    37    29    23    1
    38    36    26    2
    39    27    28    1
    40    24    23    1
