@<TRIPOS>MOLECULE
6-Chloro-2,5-dihydroxypyridine 1,1,2,2-tetrachloroethane solvate
 26 26 0 0 0
SMALL
GASTEIGER

@<TRIPOS>ATOM
      1 N          11.5100   12.8133    2.9164 N.ar    1  LIG1       -0.1977
      2 C          12.2867   13.0641    1.8498 C.ar    1  LIG1        0.2138
      3 C          11.7760   13.6531    0.6958 C.ar    1  LIG1        0.0034
      4 H          12.3295   13.8350   -0.0296 H       1  LIG1        0.0672
      5 C          10.4449   13.9597    0.6500 C.ar    1  LIG1       -0.0121
      6 H          10.0850   14.3432   -0.1170 H       1  LIG1        0.0657
      7 C           9.6274   13.7004    1.7448 C.ar    1  LIG1        0.1538
      8 C          10.2175   13.1301    2.8360 C.ar    1  LIG1        0.1742
      9 O          13.5757   12.7567    1.9013 O.3     1  LIG1       -0.4924
     10 H          13.7334   12.3597    2.6020 H       1  LIG1        0.2937
     11 O           8.2864   13.9600    1.6242 O.3     1  LIG1       -0.5037
     12 H           7.9944   14.2306    2.3418 H       1  LIG1        0.2923
     13 CL          9.2716   12.7968    4.2590 Cl      1  LIG1       -0.0580
     14 N          14.3702   11.3534    4.1204 N.ar    2  LIG2       -0.1977
     15 C          13.6204   11.1095    5.2075 C.ar    2  LIG2        0.2138
     16 C          14.1270   10.4927    6.3206 C.ar    2  LIG2        0.0034
     17 H          13.5878   10.3433    7.0636 H       2  LIG2        0.0672
     18 C          15.4361   10.0993    6.3234 C.ar    2  LIG2       -0.0121
     19 H          15.7883    9.6730    7.0714 H       2  LIG2        0.0657
     20 C          16.2454   10.3315    5.2138 C.ar    2  LIG2        0.1538
     21 C          15.6454   10.9587    4.1507 C.ar    2  LIG2        0.1742
     22 O          12.3260   11.4749    5.1567 O.3     2  LIG2       -0.4924
     23 H          12.1619   11.7938    4.4200 H       2  LIG2        0.2937
     24 O          17.5481    9.9881    5.1271 O.3     2  LIG2       -0.5037
     25 H          17.7910    9.6565    5.8356 H       2  LIG2        0.2923
     26 CL         16.5712   11.2883    2.7235 Cl      2  LIG2       -0.0580
@<TRIPOS>BOND
     1     6     5    1
     2     4     3    1
     3     5     3   ar
     4     5     7   ar
     5     3     2   ar
     6    11     7    1
     7    11    12    1
     8     7     8   ar
     9     2     9    1
    10     2     1   ar
    11     9    10    1
    12    26    21    1
    13     8     1   ar
    14     8    13    1
    15    14    21   ar
    16    14    15   ar
    17    21    20   ar
    18    23    22    1
    19    24    20    1
    20    24    25    1
    21    22    15    1
    22    15    16   ar
    23    20    18   ar
    24    16    18   ar
    25    16    17    1
    26    18    19    1
