@<TRIPOS>MOLECULE
2-(4-aminophenyl)-1-phenylhydrazin-1-ium 3-carboxy-4-hydroxybenzenesulfonate methanol solvate
 52 52 0 0 0
SMALL
GASTEIGER

@<TRIPOS>ATOM
      1 N           5.3230    9.2946   11.9475 N.pl3   1  LIG1       -0.1516
      2 N           8.6982    7.2844    8.1435 N.pl3   1  LIG1       -0.3580
      3 N           4.8313   10.4953   11.9179 N.pl3   1  LIG1       -0.2461
      4 C           6.1880    8.8975   11.0054 C.ar    1  LIG1        0.0705
      5 C           6.6161    7.5407   11.0951 C.ar    1  LIG1       -0.0355
      6 C           7.4392    6.9963   10.1619 C.ar    1  LIG1       -0.0392
      7 C           7.9139    7.7933    9.0731 C.ar    1  LIG1        0.0247
      8 C           7.5264    9.1693    9.0076 C.ar    1  LIG1       -0.0392
      9 C           6.6884    9.6947    9.9275 C.ar    1  LIG1       -0.0355
     10 C           3.9027   10.9170   12.8869 C.ar    1  LIG1        0.0462
     11 C           3.4002   10.0365   13.8359 C.ar    1  LIG1       -0.0393
     12 C           2.4694   10.5010   14.7517 C.ar    1  LIG1       -0.0600
     13 C           2.0617   11.8250   14.7492 C.ar    1  LIG1       -0.0616
     14 C           2.5733   12.6948   13.7980 C.ar    1  LIG1       -0.0600
     15 C           3.4854   12.2476   12.8572 C.ar    1  LIG1       -0.0393
     16 S           5.6463   13.2957    8.9140 S.3     2  LIG2        0.1397
     17 O           1.8849   14.7203    4.5920 O.3     2  LIG2       -0.5059
     18 O           4.8922   12.6061    9.9383 O.3     2  LIG2       -0.0427
     19 O           6.6397   12.4162    8.2755 O.2     2  LIG2       -0.1397
     20 O           6.2575   14.5266    9.3616 O.2     2  LIG2       -0.1397
     21 O           0.4684   13.0400    8.1472 O.3     2  LIG2       -0.4770
     22 O          -0.0637   14.0198    6.2040 O.2     2  LIG2       -0.2450
     23 C           2.2287   13.8531    6.8249 C.ar    2  LIG2        0.1020
     24 C           2.7043   14.3789    5.6107 C.ar    2  LIG2        0.1309
     25 C           4.0835   14.5513    5.4219 C.ar    2  LIG2       -0.0175
     26 C           4.9717   14.2210    6.4171 C.ar    2  LIG2       -0.0308
     27 C           4.4933   13.7010    7.6330 C.ar    2  LIG2        0.1206
     28 C           3.1426   13.5222    7.8307 C.ar    2  LIG2       -0.0168
     29 C           0.7770   13.6561    7.0214 C.2     2  LIG2        0.3404
     30 O           6.5917   11.1075    5.8096 O.3     1  LIG1       -0.3982
     31 C           5.8919    9.8900    5.8155 C.3     1  LIG1        0.0330
     32 H           1.4369   12.1340   15.3948 H       1  LIG1        0.0618
     33 H           6.3201    7.0064   11.8223 H       1  LIG1        0.0638
     34 H           7.6997    6.0851   10.2329 H       1  LIG1        0.0636
     35 H           7.8623    9.7200    8.3099 H       1  LIG1        0.0636
     36 H           6.4277   10.6052    9.8580 H       1  LIG1        0.0638
     37 H           5.0161   11.0598   11.3070 H       1  LIG1        0.1719
     38 H           3.6886    9.1307   13.8573 H       1  LIG1        0.0636
     39 H           2.1040    9.9011   15.3924 H       1  LIG1        0.0618
     40 H           8.8710    6.4311    8.1625 H       1  LIG1        0.1423
     41 H           8.9587    7.7688    7.4633 H       1  LIG1        0.1423
     42 H           2.2968   13.6044   13.7924 H       1  LIG1        0.0618
     43 H           3.8235   12.8421   12.1972 H       1  LIG1        0.0636
     44 H           1.0574   14.5942    4.9166 H       2  LIG2        0.2922
     45 H           4.4054   14.8999    4.5994 H       2  LIG2        0.0655
     46 H           5.9046   14.3427    6.2843 H       2  LIG2        0.0638
     47 H           2.8290   13.1720    8.6565 H       2  LIG2        0.0647
     48 H          -0.4214   12.9607    8.2297 H       2  LIG2        0.2954
     49 H           6.5576   11.4641    6.5201 H       1  LIG1        0.2090
     50 H           5.9624    9.4686    4.9331 H       1  LIG1        0.0521
     51 H           6.2759    9.2956    6.4930 H       1  LIG1        0.0521
     52 H           4.9487   10.0560    6.0237 H       1  LIG1        0.0521
@<TRIPOS>BOND
     1    17    44    1
     2    17    24    1
     3    45    25    1
     4    50    31    1
     5    25    24   ar
     6    25    26   ar
     7    24    23   ar
     8    30    31    1
     9    30    49    1
    10    31    52    1
    11    31    51    1
    12    22    29    2
    13    46    26    1
    14    26    27   ar
    15    23    29    1
    16    23    28   ar
    17    29    21    1
    18    41     2    1
    19    27    28   ar
    20    27    16    1
    21    28    47    1
    22     2    40    1
    23     2     7    1
    24    21    48    1
    25    19    16    2
    26    35     8    1
    27    16    20    2
    28    16    18    1
    29     8     7   ar
    30     8     9   ar
    31     7     6   ar
    32    36     9    1
    33     9     4   ar
    34     6    34    1
    35     6     5   ar
    36     4     5   ar
    37     4     1    1
    38     5    33    1
    39    37     3    1
    40     3     1    1
    41     3    10    1
    42    43    15    1
    43    15    10   ar
    44    15    14   ar
    45    10    11   ar
    46    42    14    1
    47    14    13   ar
    48    11    38    1
    49    11    12   ar
    50    13    12   ar
    51    13    32    1
    52    12    39    1
