@<TRIPOS>MOLECULE
quinoxaline--2,3,5,6-tetrafluorobenzene-1,4-diol (1/1)
 30 31 0 0 0
SMALL
GASTEIGER

@<TRIPOS>ATOM
      1 O           3.2781    2.6499   18.1430 O.3     1  LIG1       -0.5018
      2 H           3.4461    2.7799   17.3208 H       1  LIG1        0.2924
      3 F           5.7390    3.6209   17.2180 F       1  LIG1       -0.1984
      4 F           7.6059    4.5027   18.9119 F       1  LIG1       -0.1984
      5 O           7.2044    4.5213   21.5949 O.3     1  LIG1       -0.5018
      6 H           7.0364    4.3623   22.4128 H       1  LIG1        0.2924
      7 F           4.7425    3.5993   22.5279 F       1  LIG1       -0.1984
      8 F           2.8715    2.6774   20.8317 F       1  LIG1       -0.1984
      9 C           4.2406    3.1298   18.9619 C.ar    1  LIG1        0.1938
     10 C           5.4698    3.6090   18.5392 C.ar    1  LIG1        0.2062
     11 C           6.4272    4.0651   19.4043 C.ar    1  LIG1        0.2062
     12 C           6.2253    4.0689   20.7751 C.ar    1  LIG1        0.1938
     13 C           4.9983    3.6038   21.1965 C.ar    1  LIG1        0.2062
     14 C           4.0351    3.1358   20.3338 C.ar    1  LIG1        0.2062
     15 N           3.4706    2.9315   15.3878 N.ar    2  LIG2       -0.2519
     16 C           4.4943    2.5147   14.6784 C.ar    2  LIG2        0.0464
     17 H           5.2405    2.1180   15.1345 H       2  LIG2        0.0845
     18 C           4.5297    2.6232   13.2699 C.ar    2  LIG2        0.0464
     19 H           5.2982    2.2889   12.8019 H       2  LIG2        0.0845
     20 N           3.5542    3.1536   12.5819 N.ar    2  LIG2       -0.2519
     21 C           1.3741    4.1788   12.6140 C.ar    2  LIG2       -0.0342
     22 H           1.3842    4.2509   11.6557 H       2  LIG2        0.0639
     23 C           0.2985    4.6268   13.3265 C.ar    2  LIG2       -0.0596
     24 H          -0.4391    5.0331   12.8656 H       2  LIG2        0.0618
     25 C           0.2581    4.5087   14.7312 C.ar    2  LIG2       -0.0596
     26 H          -0.5083    4.8311   15.2123 H       2  LIG2        0.0618
     27 C           1.2905    3.9448   15.4074 C.ar    2  LIG2       -0.0342
     28 H           1.2508    3.8571   16.3633 H       2  LIG2        0.0639
     29 C           2.4267    3.4842   14.7060 C.ar    2  LIG2        0.0892
     30 C           2.4671    3.6016   13.2887 C.ar    2  LIG2        0.0892
@<TRIPOS>BOND
     1    22    21    1
     2    20    18   ar
     3    20    30   ar
     4    21    30   ar
     5    21    23   ar
     6    19    18    1
     7    24    23    1
     8    18    16   ar
     9    30    29   ar
    10    23    25   ar
    11    16    17    1
    12    16    15   ar
    13    29    15   ar
    14    29    27   ar
    15    25    26    1
    16    25    27   ar
    17    27    28    1
    18     3    10    1
    19     2     1    1
    20     1     9    1
    21    10     9   ar
    22    10    11   ar
    23     4    11    1
    24     9    14   ar
    25    11    12   ar
    26    14     8    1
    27    14    13   ar
    28    12    13   ar
    29    12     5    1
    30    13     7    1
    31     5     6    1
