@<TRIPOS>MOLECULE
2-[(2-ammonioethyl)amino]acetate dihydrate
 24 21 0 0 0
SMALL
GASTEIGER

@<TRIPOS>ATOM
      1 C          -1.5287   13.0712    5.3760 C.2     1  LIG1        0.3695
      2 C          -0.4374   13.9464    4.7821 C.3     1  LIG1        0.0989
      3 H          -0.7714   14.8772    4.7197 H       1  LIG1        0.0541
      4 H           0.3413   13.9467    5.3936 H       1  LIG1        0.0541
      5 C           1.0010   14.4446    2.9260 C.3     1  LIG1        0.0366
      6 H           1.7462   14.5205    3.5739 H       1  LIG1        0.0477
      7 H           0.5884   15.3391    2.8337 H       1  LIG1        0.0477
      8 C           1.5584   14.0221    1.5866 C.3     1  LIG1       -0.0225
      9 H           0.8086   13.7706    0.9909 H       1  LIG1        0.0826
     10 H           2.0258   14.7926    1.1754 H       1  LIG1        0.0826
     11 N           0.0007   13.5125    3.4598 N.3     1  LIG1       -0.3017
     12 N           2.5074   12.8739    1.6839 N.4     1  LIG1        0.2194
     13 O          -1.9028   12.0641    4.7423 O.co2   1  LIG1       -0.2449
     14 O          -1.9932   13.4494    6.4920 O.co2   1  LIG1       -0.2449
     15 O          -1.9244   16.1429    7.0625 O.3     2  HOH2       -0.4105
     16 O           0.3902   17.2381    6.0843 O.3     3  HOH3       -0.4105
     17 H           2.0638   12.0810    1.9026 H       1  LIG1        0.1995
     18 H          -1.2157   16.4708    6.7095 H       0  HOH0        0.2052
     19 H           2.9191   12.7921    0.8648 H       1  LIG1        0.1995
     20 H          -1.8859   15.2865    6.8825 H       0  HOH0        0.2052
     21 H           3.2119   13.0596    2.3062 H       1  LIG1        0.1995
     22 H           1.1467   16.8892    6.3636 H       0  HOH0        0.2052
     23 H           0.3267   12.7052    3.5393 H       1  LIG1        0.1226
     24 H           0.5635   17.4974    5.2393 H       0  HOH0        0.2052
@<TRIPOS>BOND
     1    19    12    1
     2     9     8    1
     3    10     8    1
     4     8    12    1
     5     8     5    1
     6    12    17    1
     7    12    21    1
     8     7     5    1
     9     5    11    1
    10     5     6    1
    11    11    23    1
    12    11     2    1
    13     3     2    1
    14    13     1   ar
    15     2     1    1
    16     2     4    1
    17    24    16    1
    18     1    14   ar
    19    16    22    1
    20    18    15    1
    21    20    15    1
