@<TRIPOS>MOLECULE
(2RS,4SR)-7-bromo-2-(4-chlorophenyl-2,3,4,5-tetrahydro- 1,4-epoxynaphtho[1,2-<i>b</i>]azepine
 39 43 0 0 0
SMALL
GASTEIGER

@<TRIPOS>ATOM
      1 N           4.2388    5.3908   12.5292 N.4     1  LIG1       -0.2441
      2 C           3.6503    4.7721   13.7264 C.3     1  LIG1        0.0847
      3 H           4.0990    3.8970   13.9065 H       1  LIG1        0.0600
      4 C           2.1820    4.5236   13.3184 C.3     1  LIG1        0.0032
      5 H           2.0167    3.5621   13.1535 H       1  LIG1        0.0315
      6 H           1.5592    4.8428   14.0193 H       1  LIG1        0.0315
      7 C           2.0255    5.3299   12.0438 C.3     1  LIG1        0.0929
      8 H           1.1692    5.8475   12.0521 H       1  LIG1        0.0626
      9 C           2.1321    4.4833   10.7975 C.3     1  LIG1        0.0033
     10 H           1.4840    3.7369   10.8413 H       1  LIG1        0.0340
     11 H           1.9209    5.0304   10.0020 H       1  LIG1        0.0340
     12 C           3.5183    3.9432   10.6877 C.ar    1  LIG1       -0.0178
     13 C           3.8331    2.9601    9.7286 C.ar    1  LIG1       -0.0419
     14 H           3.1615    2.6556    9.1295 H       1  LIG1        0.0632
     15 C           5.0785    2.4484    9.6520 C.ar    1  LIG1        0.0260
     16 BR          5.4054    1.0986    8.3589 Br      1  LIG1       -0.0497
     17 C           6.1245    2.8776   10.4936 C.ar    1  LIG1       -0.0019
     18 C           7.4296    2.3718   10.4306 C.ar    1  LIG1       -0.0529
     19 H           7.6369    1.6784    9.8162 H       1  LIG1        0.0624
     20 C           8.4013    2.8638   11.2400 C.ar    1  LIG1       -0.0611
     21 H           9.2802    2.5073   11.1929 H       1  LIG1        0.0618
     22 C           8.1188    3.8921   12.1450 C.ar    1  LIG1       -0.0611
     23 H           8.8119    4.2437   12.6891 H       1  LIG1        0.0618
     24 C           6.8577    4.3930   12.2512 C.ar    1  LIG1       -0.0520
     25 H           6.6749    5.0834   12.8781 H       1  LIG1        0.0624
     26 C           5.8254    3.8990   11.4420 C.ar    1  LIG1        0.0089
     27 C           4.5018    4.3871   11.5260 C.ar    1  LIG1        0.0762
     28 O           3.1644    6.2197   12.0534 O.3     1  LIG1       -0.2671
     29 C           3.7940    5.6668   14.9266 C.ar    1  LIG1       -0.0225
     30 C           3.1576    5.3152   16.1073 C.ar    1  LIG1       -0.0552
     31 H           2.6492    4.5138   16.1425 H       1  LIG1        0.0621
     32 C           3.2485    6.1107   17.2372 C.ar    1  LIG1       -0.0431
     33 H           2.8086    5.8632   18.0433 H       1  LIG1        0.0632
     34 C           3.9856    7.2607   17.1685 C.ar    1  LIG1        0.0410
     35 CL          4.0643    8.2915   18.5721 Cl      1  LIG1       -0.0835
     36 C           4.6562    7.6251   16.0320 C.ar    1  LIG1       -0.0431
     37 H           5.1851    8.4147   16.0131 H       1  LIG1        0.0632
     38 C           4.5477    6.8188   14.9134 C.ar    1  LIG1       -0.0552
     39 H           5.0033    7.0653   14.1189 H       1  LIG1        0.0621
@<TRIPOS>BOND
     1    16    15    1
     2    14    13    1
     3    15    13   ar
     4    15    17   ar
     5    13    12   ar
     6    19    18    1
     7    11     9    1
     8    18    17   ar
     9    18    20   ar
    10    17    26   ar
    11    12     9    1
    12    12    27   ar
    13     9    10    1
    14     9     7    1
    15    21    20    1
    16    20    22   ar
    17    26    27   ar
    18    26    24   ar
    19    27     1    1
    20     7     8    1
    21     7    28    1
    22     7     4    1
    23    28     1    1
    24    22    24   ar
    25    22    23    1
    26    24    25    1
    27     1     2    1
    28     5     4    1
    29     4     2    1
    30     4     6    1
    31     2     3    1
    32     2    29    1
    33    39    38    1
    34    38    29   ar
    35    38    36   ar
    36    29    30   ar
    37    37    36    1
    38    36    34   ar
    39    30    31    1
    40    30    32   ar
    41    34    32   ar
    42    34    35    1
    43    32    33    1
