@<TRIPOS>MOLECULE
2-cyano-<i>N</i>-(2,6-dimethoxypyrimidin-4-yl)-3-[4- (dimethylamino)phenyl]acrylamide
 45 46 0 0 0
SMALL
GASTEIGER

@<TRIPOS>ATOM
      1 N           4.0286    0.9988    9.5106 N.ar    1  LIG1       -0.1595
      2 C           3.6716    0.4498    8.3440 C.ar    1  LIG1        0.3225
      3 N           2.9968    0.9938    7.3506 N.ar    1  LIG1       -0.1796
      4 C           2.6484    2.2936    7.5432 C.ar    1  LIG1        0.1356
      5 C           2.9788    2.9999    8.6750 C.ar    1  LIG1        0.0403
      6 H           2.7548    3.9163    8.7899 H       1  LIG1        0.0705
      7 C           3.6695    2.2678    9.6430 C.ar    1  LIG1        0.2222
      8 O           4.0600   -0.8392    8.2505 O.3     1  LIG1       -0.4656
      9 C           3.7638   -1.5193    7.0199 C.3     1  LIG1        0.0819
     10 H           2.7999   -1.4779    6.8479 H       1  LIG1        0.0661
     11 H           4.0434   -2.4559    7.0895 H       1  LIG1        0.0661
     12 H           4.2467   -1.0876    6.2836 H       1  LIG1        0.0661
     13 O           3.9569    2.9072   10.7925 O.3     1  LIG1       -0.4795
     14 C           4.5567    2.1039   11.8347 C.3     1  LIG1        0.0804
     15 H           4.0154    1.3003   11.9802 H       1  LIG1        0.0660
     16 H           4.5996    2.6239   12.6643 H       1  LIG1        0.0660
     17 H           5.4622    1.8431   11.5659 H       1  LIG1        0.0660
     18 N           1.9026    2.8003    6.4784 N.am    1  LIG1       -0.2655
     19 H           1.6274    2.2139    5.8822 H       1  LIG1        0.1566
     20 C           1.5482    4.1065    6.2521 C.2     1  LIG1        0.2596
     21 O           1.9139    5.0198    6.9863 O.2     1  LIG1       -0.2691
     22 C           0.7024    4.3578    5.0522 C.2     1  LIG1        0.1142
     23 C           0.3257    3.2366    4.2483 C.1     1  LIG1        0.1044
     24 N           0.0325    2.2897    3.6618 N.1     1  LIG1       -0.1907
     25 C           0.3148    5.6405    4.8162 C.2     1  LIG1       -0.0321
     26 H           0.6092    6.2563    5.4766 H       1  LIG1        0.0638
     27 C          -0.4512    6.2432    3.7641 C.ar    1  LIG1       -0.0235
     28 C          -0.8509    5.5934    2.5786 C.ar    1  LIG1       -0.0528
     29 H          -0.6130    4.6837    2.4459 H       1  LIG1        0.0624
     30 C          -1.5763    6.2441    1.6112 C.ar    1  LIG1       -0.0401
     31 H          -1.8319    5.7759    0.8254 H       1  LIG1        0.0636
     32 C          -1.9510    7.6029    1.7648 C.ar    1  LIG1        0.0292
     33 C          -1.5396    8.2701    2.9397 C.ar    1  LIG1       -0.0401
     34 H          -1.7671    9.1833    3.0706 H       1  LIG1        0.0636
     35 C          -0.8110    7.6007    3.8948 C.ar    1  LIG1       -0.0528
     36 H          -0.5390    8.0716    4.6738 H       1  LIG1        0.0624
     37 N          -2.6902    8.2363    0.8109 N.pl3   1  LIG1       -0.3360
     38 C          -3.0587    7.5600   -0.4264 C.3     1  LIG1        0.0004
     39 H          -2.2494    7.3499   -0.9376 H       1  LIG1        0.0428
     40 H          -3.6387    8.1453   -0.9581 H       1  LIG1        0.0428
     41 H          -3.5369    6.7305   -0.2158 H       1  LIG1        0.0428
     42 C          -3.0487    9.6391    0.9676 C.3     1  LIG1        0.0004
     43 H          -3.5726    9.7523    1.7878 H       1  LIG1        0.0428
     44 H          -3.5812    9.9279    0.1974 H       1  LIG1        0.0428
     45 H          -2.2335   10.1804    1.0228 H       1  LIG1        0.0428
@<TRIPOS>BOND
     1    40    38    1
     2    39    38    1
     3    38    41    1
     4    38    37    1
     5    44    42    1
     6    37    42    1
     7    37    32    1
     8    31    30    1
     9    42    45    1
    10    42    43    1
    11    30    32   ar
    12    30    28   ar
    13    32    33   ar
    14    29    28    1
    15    28    27   ar
    16    33    34    1
    17    33    35   ar
    18    24    23    3
    19    27    35   ar
    20    27    25    1
    21    35    36    1
    22    23    22    1
    23    25    22    2
    24    25    26    1
    25    22    20    1
    26    19    18    1
    27    20    18   am
    28    20    21    2
    29    12     9    1
    30    18     4    1
    31    10     9    1
    32     9    11    1
    33     9     8    1
    34     3     4   ar
    35     3     2   ar
    36     4     5   ar
    37     8     2    1
    38     2     1   ar
    39     5     6    1
    40     5     7   ar
    41     1     7   ar
    42     7    13    1
    43    13    14    1
    44    17    14    1
    45    14    15    1
    46    14    16    1
