@<TRIPOS>MOLECULE
Methyl \b-allolactoside monohydrate
 51 51 0 0 0
SMALL
GASTEIGER

@<TRIPOS>ATOM
      1 O           6.2148    6.0954    7.5413 O.3     1  LIG1       -0.3520
      2 O           5.5147    5.7789   10.3460 O.3     1  LIG1       -0.3841
      3 H           5.8336    6.5554   10.3769 H       1  LIG1        0.2101
      4 O           2.7675    5.0584   10.8012 O.3     1  LIG1       -0.3864
      5 H           2.9073    5.8698   10.9668 H       1  LIG1        0.2100
      6 O           1.6341    3.3857    8.7393 O.3     1  LIG1       -0.3865
      7 H           1.1028    3.6261    9.3435 H       1  LIG1        0.2100
      8 O           4.3203    5.0261    6.9510 O.3     1  LIG1       -0.3405
      9 C           5.2685    5.1677    7.9826 C.3     1  LIG1        0.1876
     10 H           5.7094    4.2889    8.1651 H       1  LIG1        0.0937
     11 C           4.5905    5.6836    9.2473 C.3     1  LIG1        0.1341
     12 H           4.1776    6.5781    9.0723 H       1  LIG1        0.0671
     13 C           3.5028    4.6754    9.6334 C.3     1  LIG1        0.1141
     14 H           3.9535    3.8054    9.8321 H       1  LIG1        0.0648
     15 C           2.5377    4.4428    8.4563 C.3     1  LIG1        0.1119
     16 H           2.0329    5.2814    8.2526 H       1  LIG1        0.0647
     17 C           3.3552    4.0170    7.2454 C.3     1  LIG1        0.1134
     18 H           3.8264    3.1592    7.4516 H       1  LIG1        0.0647
     19 C           2.5355    3.8474    5.9832 C.3     1  LIG1        0.0796
     20 H           1.7978    3.2073    6.1469 H       1  LIG1        0.0587
     21 H           2.1386    4.7165    5.7233 H       1  LIG1        0.0587
     22 C           6.9309    5.6346    6.3794 C.3     1  LIG1        0.0395
     23 H           7.5873    6.3105    6.1107 H       1  LIG1        0.0525
     24 H           6.2997    5.4816    5.6458 H       1  LIG1        0.0525
     25 H           7.3933    4.7970    6.5931 H       1  LIG1        0.0525
     26 O           3.3782    3.3594    4.9217 O.3     1  LIG1       -0.3460
     27 O           5.8463    3.8106    3.4307 O.3     1  LIG1       -0.3841
     28 H           5.9505    3.2790    4.0726 H       1  LIG1        0.2101
     29 O           5.4161    3.6541    0.6873 O.3     1  LIG1       -0.3864
     30 H           5.3037    3.9068   -0.1062 H       1  LIG1        0.2100
     31 O           2.6125    3.1636    0.6373 O.3     1  LIG1       -0.3865
     32 H           2.3480    3.1592   -0.1600 H       1  LIG1        0.2100
     33 O           2.2076    4.2662    3.2019 O.3     1  LIG1       -0.3405
     34 O          -0.0251    5.8777    2.5831 O.3     1  LIG1       -0.3924
     35 H          -0.5171    5.2927    2.9304 H       1  LIG1        0.2095
     36 C           3.4880    4.2277    3.8289 C.3     1  LIG1        0.1880
     37 H           3.7547    5.1415    4.1350 H       1  LIG1        0.0937
     38 C           4.5426    3.6497    2.8879 C.3     1  LIG1        0.1341
     39 H           4.3622    2.6748    2.7517 H       1  LIG1        0.0671
     40 C           4.5274    4.3545    1.5345 C.3     1  LIG1        0.1141
     41 H           4.8847    5.2796    1.6620 H       1  LIG1        0.0648
     42 C           3.1029    4.4682    0.9722 C.3     1  LIG1        0.1119
     43 H           3.1117    5.0418    0.1537 H       1  LIG1        0.0647
     44 C           2.2120    5.1056    2.0294 C.3     1  LIG1        0.1130
     45 H           2.5842    6.0019    2.2718 H       1  LIG1        0.0647
     46 C           0.7863    5.2770    1.5620 C.3     1  LIG1        0.0730
     47 H           0.7724    5.8471    0.7523 H       1  LIG1        0.0584
     48 H           0.4109    4.3930    1.3209 H       1  LIG1        0.0584
     49 O           5.7825    7.8748    1.8953 O.3     2  HOH2       -0.4105
     50 H           6.1371    8.6216    1.9244 H       0  HOH0        0.2052
     51 H           6.3835    7.3100    2.0619 H       0  HOH0        0.2052
@<TRIPOS>BOND
     1    32    31    1
     2    30    29    1
     3    43    42    1
     4    31    42    1
     5    29    40    1
     6    47    46    1
     7    42    40    1
     8    42    44    1
     9    48    46    1
    10    40    41    1
    11    40    38    1
    12    46    44    1
    13    46    34    1
    14    49    50    1
    15    49    51    1
    16    44    45    1
    17    44    33    1
    18    34    35    1
    19    39    38    1
    20    38    27    1
    21    38    36    1
    22    33    36    1
    23    27    28    1
    24    36    37    1
    25    36    26    1
    26    26    19    1
    27    24    22    1
    28    21    19    1
    29    19    20    1
    30    19    17    1
    31    23    22    1
    32    22    25    1
    33    22     1    1
    34     8    17    1
    35     8     9    1
    36    17    18    1
    37    17    15    1
    38     1     9    1
    39     9    10    1
    40     9    11    1
    41    16    15    1
    42    15     6    1
    43    15    13    1
    44     6     7    1
    45    12    11    1
    46    11    13    1
    47    11     2    1
    48    13    14    1
    49    13     4    1
    50     2     3    1
    51     4     5    1
