@<TRIPOS>MOLECULE
3,3'-[1,4-phenylene-bis-(methylene)]-bis-[6-(chloromethyl)- 1,4-dimethyl-2,5-piperazinedione]
 30 30 0 0 0
SMALL
GASTEIGER

@<TRIPOS>ATOM
      1 CL          8.2141    5.7697    1.5683 Cl      2  UNK2       -0.1230
      2 O           5.7544    4.5048    3.9584 O.2     2  UNK2       -0.2735
      3 O           8.6957    1.6169    0.6082 O.2     1  LEU1       -0.2735
      4 N           7.3214    2.9312    3.6752 N.am    1  LEU1       -0.2911
      5 N           7.0101    3.0579    0.8988 N.am    2  UNK2       -0.2903
      6 C           6.4237    3.7906    3.2188 C.2     2  UNK2        0.2376
      7 CA          8.0872    2.0201    2.8379 C.3     1  LEU1        0.1058
      8 HA          9.0317    2.1467    3.0680 H       1  LEU1        0.0600
      9 C           7.9643    2.2400    1.3561 C.2     1  LEU1        0.2368
     10 C           6.2354    3.9496    1.7240 C.3     2  UNK2        0.1154
     11 H           5.2910    3.7701    1.5331 H       2  UNK2        0.0608
     12 C           6.4881    5.3948    1.3822 C.3     2  UNK2        0.0497
     13 H           5.9652    5.9652    1.9680 H       2  UNK2        0.0453
     14 H           6.2130    5.5670    0.4685 H       2  UNK2        0.0453
     15 C           7.5477    2.8869    5.1170 C.3     0  UNK0        0.0040
     16 H           6.7389    2.6189    5.5594 H       0  UNK0        0.0429
     17 H           7.8092    3.7573    5.4262 H       0  UNK0        0.0429
     18 H           8.2434    2.2552    5.3117 H       0  UNK0        0.0429
     19 C           6.8384    3.1728   -0.5430 C.3     2  UNK2        0.0040
     20 H           7.0228    2.3253   -0.9556 H       2  UNK2        0.0429
     21 H           7.4433    3.8352   -0.8857 H       2  UNK2        0.0429
     22 H           5.9349    3.4331   -0.7377 H       2  UNK2        0.0429
     23 CB          7.7419    0.5377    3.1481 C.3     1  LEU1       -0.0039
     24 HB1         8.1897   -0.0306    2.5026 H       1  LEU1        0.0333
     25 HB2         8.0853    0.3127    4.0273 H       1  LEU1        0.0333
     26 CG          6.2657    0.2489    3.1127 C.2     1  LEU1       -0.0631
     27 CD2         5.5554    0.1212    4.2732 C.2     1  LEU1       -0.0622
     28 HD2         6.0003    0.2016    5.0853 H       1  LEU1        0.0617
     29 CD1         5.5564    0.1263    1.9466 C.3     1  LEU1       -0.0054
     30 HD1         6.0003    0.2157    1.1344 H       1  LEU1        0.0358
@<TRIPOS>BOND
     1    20    19    1
     2    21    19    1
     3    22    19    1
     4    19     5    1
     5    14    12    1
     6     3     9    2
     7     5     9   am
     8     5    10    1
     9    30    29    1
    10     9     7    1
    11    12     1    1
    12    12    10    1
    13    12    13    1
    14    11    10    1
    15    10     6    1
    16    29    26    1
    17    24    23    1
    18     7     8    1
    19     7    23    1
    20     7     4    1
    21    26    23    1
    22    26    27    2
    23    23    25    1
    24     6     4   am
    25     6     2    2
    26     4    15    1
    27    27    28    1
    28    15    18    1
    29    15    17    1
    30    15    16    1
