@<TRIPOS>MOLECULE
4-Iodo-<i>N</i>-(4-methoxyphenyl)benzenesulfonamide
 31 32 0 0 0
SMALL
GASTEIGER

@<TRIPOS>ATOM
      1 I          11.9259   13.9750    0.7842 I       1  LIG1       -0.0438
      2 S          16.5810    9.6324    2.5288 S.O2    1  LIG1        0.0723
      3 O          20.5960   14.8973    2.3361 O.3     1  LIG1       -0.4951
      4 O          16.9570    9.8307    3.9017 O.2     1  LIG1       -0.1500
      5 O          16.2145    8.3296    2.0659 O.2     1  LIG1       -0.1500
      6 N          17.8381   10.1028    1.5975 N.pl3   1  LIG1       -0.2163
      7 H          17.7169    9.9357    0.7740 H       1  LIG1        0.1737
      8 C          15.2604   10.7445    2.1519 C.ar    1  LIG1        0.1086
      9 C          14.3752   10.4205    1.1372 C.ar    1  LIG1       -0.0341
     10 H          14.4337    9.5813    0.6945 H       1  LIG1        0.0637
     11 C          13.4048   11.3394    0.7795 C.ar    1  LIG1       -0.0468
     12 H          12.7770   11.1280    0.0981 H       1  LIG1        0.0628
     13 C          13.3473   12.5671    1.4159 C.ar    1  LIG1        0.0135
     14 C          14.2299   12.8937    2.4246 C.ar    1  LIG1       -0.0468
     15 H          14.1778   13.7404    2.8531 H       1  LIG1        0.0628
     16 C          15.1949   11.9748    2.8075 C.ar    1  LIG1       -0.0341
     17 H          15.8042   12.1798    3.5071 H       1  LIG1        0.0637
     18 C          18.4954   11.3609    1.8611 C.ar    1  LIG1        0.0483
     19 C          18.2506   12.4532    1.0325 C.ar    1  LIG1       -0.0359
     20 H          17.5998   12.3988    0.3430 H       1  LIG1        0.0638
     21 C          18.9746   13.6316    1.2282 C.ar    1  LIG1       -0.0182
     22 H          18.8293   14.3784    0.6601 H       1  LIG1        0.0655
     23 C          19.9028   13.7113    2.2480 C.ar    1  LIG1        0.1202
     24 C          20.1162   12.6241    3.1080 C.ar    1  LIG1       -0.0182
     25 H          20.7377   12.6899    3.8228 H       1  LIG1        0.0655
     26 C          19.4083   11.4546    2.9016 C.ar    1  LIG1       -0.0359
     27 H          19.5493   10.7104    3.4753 H       1  LIG1        0.0638
     28 C          21.5443   15.0087    3.3893 C.3     1  LIG1        0.0788
     29 H          22.0084   15.8693    3.3210 H       1  LIG1        0.0660
     30 H          22.1949   14.2796    3.3210 H       1  LIG1        0.0660
     31 H          21.0824   14.9555    4.2523 H       1  LIG1        0.0660
@<TRIPOS>BOND
     1    12    11    1
     2    20    19    1
     3    22    21    1
     4    10     9    1
     5     7     6    1
     6    11     9   ar
     7    11    13   ar
     8     1    13    1
     9    19    21   ar
    10    19    18   ar
    11     9     8   ar
    12    21    23   ar
    13    13    14   ar
    14     6    18    1
    15     6     2    1
    16    18    26   ar
    17     5     2    2
    18     8     2    1
    19     8    16   ar
    20    23     3    1
    21    23    24   ar
    22     3    28    1
    23    14    16   ar
    24    14    15    1
    25     2     4    2
    26    16    17    1
    27    26    24   ar
    28    26    27    1
    29    24    25    1
    30    29    28    1
    31    30    28    1
    32    28    31    1
