@<TRIPOS>MOLECULE
(<i>E</i>)-<i>N</i>'-(4-Bromobenzylidene)-4-hydroxybenzohydrazide
 30 31 0 0 0
SMALL
GASTEIGER

@<TRIPOS>ATOM
      1 BR          2.4053    0.4356    8.3313 Br      1  LIG1       -0.0503
      2 O          -0.8315    7.6074    3.8886 O.2     1  LIG1       -0.2685
      3 O          -3.0390    9.4279   -1.6795 O.3     1  LIG1       -0.5068
      4 N          -0.3427    5.7217    2.7416 N.am    1  LIG1       -0.2030
      5 N           0.0156    5.0473    3.8872 N.2     1  LIG1       -0.1875
      6 C          -1.2398    7.5897    1.5509 C.ar    1  LIG1        0.0386
      7 C          -1.2607    8.9737    1.4195 C.ar    1  LIG1       -0.0461
      8 C          -1.8068    9.5589    0.3086 C.ar    1  LIG1       -0.0195
      9 C          -2.3955    8.7847   -0.6785 C.ar    1  LIG1        0.1169
     10 C          -2.3472    7.4092   -0.5846 C.ar    1  LIG1       -0.0195
     11 C          -1.7711    6.8249    0.5269 C.ar    1  LIG1       -0.0461
     12 C          -0.7693    6.9945    2.8139 C.2     1  LIG1        0.2633
     13 C           0.1951    3.7924    3.7538 C.2     1  LIG1        0.0528
     14 C           0.6511    2.9763    4.8667 C.ar    1  LIG1       -0.0054
     15 C           1.0429    3.5611    6.0568 C.ar    1  LIG1       -0.0521
     16 C           1.5620    2.8084    7.0710 C.ar    1  LIG1       -0.0472
     17 C           1.6711    1.4508    6.9076 C.ar    1  LIG1        0.0179
     18 C           1.2721    0.8329    5.7599 C.ar    1  LIG1       -0.0472
     19 C           0.7644    1.6064    4.7416 C.ar    1  LIG1       -0.0521
     20 H          -0.1595    5.3755    2.0020 H       1  LIG1        0.1776
     21 H          -0.8994    9.5059    2.0910 H       1  LIG1        0.0626
     22 H          -3.3539    8.8639   -2.1410 H       1  LIG1        0.2921
     23 H          -1.7833   10.4846    0.2155 H       1  LIG1        0.0654
     24 H          -2.6990    6.8799   -1.2638 H       1  LIG1        0.0654
     25 H          -1.7399    5.8964    0.5881 H       1  LIG1        0.0626
     26 H           0.0300    3.3915    2.9307 H       1  LIG1        0.0851
     27 H           0.9509    4.4792    6.1680 H       1  LIG1        0.0624
     28 H           1.8381    3.2122    7.8621 H       1  LIG1        0.0629
     29 H           1.3417   -0.0896    5.6675 H       1  LIG1        0.0629
     30 H           0.4913    1.1967    3.9519 H       1  LIG1        0.0624
@<TRIPOS>BOND
     1    22     3    1
     2     3     9    1
     3    24    10    1
     4     9    10   ar
     5     9     8   ar
     6    10    11   ar
     7    23     8    1
     8     8     7   ar
     9    11    25    1
    10    11     6   ar
    11     7     6   ar
    12     7    21    1
    13     6    12    1
    14    20     4    1
    15     4    12   am
    16     4     5    1
    17    12     2    2
    18    26    13    1
    19    13     5    2
    20    13    14    1
    21    30    19    1
    22    19    14   ar
    23    19    18   ar
    24    14    15   ar
    25    29    18    1
    26    18    17   ar
    27    15    27    1
    28    15    16   ar
    29    17    16   ar
    30    17     1    1
    31    16    28    1
