@<TRIPOS>MOLECULE
4-Fluoro-<i>N</i>-(4-methoxyphenyl)benzenesulfonamide
 31 32 0 0 0
SMALL
GASTEIGER

@<TRIPOS>ATOM
      1 F           8.8613   -1.5659    4.1006 F       1  LIG1       -0.2055
      2 S           4.7500    2.2542    2.5104 S.O2    1  LIG1        0.0723
      3 O           4.3801    2.0234    1.1418 O.2     1  LIG1       -0.1500
      4 O           5.1274    3.5646    2.9392 O.2     1  LIG1       -0.1500
      5 O           0.8306   -3.0248    2.6038 O.3     1  LIG1       -0.4951
      6 N           3.4609    1.8263    3.4323 N.pl3   1  LIG1       -0.2163
      7 H           3.6495    1.9422    4.2678 H       1  LIG1        0.1737
      8 C           6.0506    1.1357    2.9156 C.ar    1  LIG1        0.1087
      9 C           6.9184    1.4705    3.9499 C.ar    1  LIG1       -0.0324
     10 H           6.8514    2.3153    4.3787 H       1  LIG1        0.0638
     11 C           7.8835    0.5570    4.3491 C.ar    1  LIG1       -0.0246
     12 H           8.4948    0.7623    5.0475 H       1  LIG1        0.0647
     13 C           7.9282   -0.6657    3.6969 C.ar    1  LIG1        0.1235
     14 C           7.0906   -1.0053    2.6656 C.ar    1  LIG1       -0.0246
     15 H           7.1685   -1.8471    2.2323 H       1  LIG1        0.0647
     16 C           6.1248   -0.0897    2.2694 C.ar    1  LIG1       -0.0324
     17 H           5.5230   -0.2990    1.5655 H       1  LIG1        0.0638
     18 C           2.8027    0.5704    3.1702 C.ar    1  LIG1        0.0483
     19 C           3.0902   -0.5470    3.9504 C.ar    1  LIG1       -0.0359
     20 H           3.7490   -0.4942    4.6323 H       1  LIG1        0.0638
     21 C           2.4133   -1.7328    3.7300 C.ar    1  LIG1       -0.0182
     22 H           2.6050   -2.4957    4.2622 H       1  LIG1        0.0655
     23 C           1.4507   -1.8055    2.7253 C.ar    1  LIG1        0.1202
     24 C           1.1715   -0.7024    1.9401 C.ar    1  LIG1       -0.0182
     25 H           0.5243   -0.7598    1.2467 H       1  LIG1        0.0655
     26 C           1.8467    0.4932    2.1740 C.ar    1  LIG1       -0.0359
     27 H           1.6496    1.2590    1.6474 H       1  LIG1        0.0638
     28 C          -0.0837   -3.1943    1.5253 C.3     1  LIG1        0.0788
     29 H          -0.4166   -4.1155    1.5208 H       1  LIG1        0.0660
     30 H           0.3730   -3.0085    0.6783 H       1  LIG1        0.0660
     31 H          -0.8352   -2.5760    1.6343 H       1  LIG1        0.0660
@<TRIPOS>BOND
     1    30    28    1
     2     3     2    2
     3    25    24    1
     4    29    28    1
     5    28    31    1
     6    28     5    1
     7    17    16    1
     8    27    26    1
     9    24    26   ar
    10    24    23   ar
    11    26    18   ar
    12    15    14    1
    13    16    14   ar
    14    16     8   ar
    15     2     8    1
    16     2     4    2
    17     2     6    1
    18     5    23    1
    19    14    13   ar
    20    23    21   ar
    21     8     9   ar
    22    18     6    1
    23    18    19   ar
    24     6     7    1
    25    13     1    1
    26    13    11   ar
    27    21    19   ar
    28    21    22    1
    29     9    11   ar
    30     9    10    1
    31    19    20    1
    32    11    12    1
