@<TRIPOS>MOLECULE
3,4-dinitrobenzoic acid
 76 76 0 0 0
SMALL
GASTEIGER

@<TRIPOS>ATOM
      1 C          -0.6575    4.1411    8.2430 C.2     1  LIG1        0.3369
      2 C           0.3122    3.1414    8.7551 C.ar    1  LIG1        0.0611
      3 C          -0.1264    1.9873    9.3798 C.ar    1  LIG1       -0.0152
      4 H          -1.0569    1.8225    9.4788 H       1  LIG1        0.0649
      5 C           0.7886    1.0811    9.8550 C.ar    1  LIG1        0.1570
      6 C           2.1537    1.3420    9.7005 C.ar    1  LIG1        0.1563
      7 C           2.5979    2.4675    9.0758 C.ar    1  LIG1       -0.0284
      8 H           3.5295    2.6166    8.9633 H       1  LIG1        0.0641
      9 C           1.6801    3.3906    8.6073 C.ar    1  LIG1       -0.0455
     10 H           1.9780    4.1890    8.1859 H       1  LIG1        0.0626
     11 C           5.3320   -0.1730    1.8185 C.2     2  LIG2        0.3369
     12 C           4.3792    0.6971    2.5288 C.ar    2  LIG2        0.0611
     13 C           4.8349    1.7069    3.3650 C.ar    2  LIG2       -0.0152
     14 H           5.7645    1.8115    3.5313 H       2  LIG2        0.0649
     15 C           3.9289    2.5440    3.9460 C.ar    2  LIG2        0.1570
     16 C           2.5540    2.3664    3.7344 C.ar    2  LIG2        0.1563
     17 C           2.1076    1.3555    2.9402 C.ar    2  LIG2       -0.0284
     18 H           1.1761    1.2262    2.8092 H       2  LIG2        0.0641
     19 C           3.0200    0.5195    2.3256 C.ar    2  LIG2       -0.0455
     20 H           2.7143   -0.1810    1.7614 H       2  LIG2        0.0626
     21 C           6.9177    2.4424   -0.0890 C.2     3  LIG3        0.3369
     22 C           5.9677    3.4549    0.4181 C.ar    3  LIG3        0.0611
     23 C           6.4391    4.6224    0.9907 C.ar    3  LIG3       -0.0152
     24 H           7.3723    4.7852    1.0579 H       3  LIG3        0.0649
     25 C           5.5388    5.5384    1.4575 C.ar    3  LIG3        0.1570
     26 C           4.1698    5.2858    1.3903 C.ar    3  LIG3        0.1563
     27 C           3.7031    4.1222    0.8127 C.ar    3  LIG3       -0.0284
     28 H           2.7707    3.9452    0.7674 H       3  LIG3        0.0641
     29 C           4.6080    3.2229    0.3056 C.ar    3  LIG3       -0.0455
     30 H           4.2985    2.4358   -0.1276 H       3  LIG3        0.0626
     31 C           4.2677    6.4802    6.5521 C.2     4  LIG4        0.3369
     32 C           3.2899    7.3021    5.7964 C.ar    4  LIG4        0.0611
     33 C           3.7208    8.4091    5.0845 C.ar    4  LIG4       -0.0152
     34 H           4.6443    8.6274    5.0324 H       4  LIG4        0.0649
     35 C           2.7761    9.1859    4.4582 C.ar    4  LIG4        0.1570
     36 C           1.4258    8.8337    4.5236 C.ar    4  LIG4        0.1563
     37 C           1.0063    7.7319    5.2104 C.ar    4  LIG4       -0.0284
     38 H           0.0834    7.5083    5.2474 H       4  LIG4        0.0641
     39 C           1.9451    6.9485    5.8535 C.ar    4  LIG4       -0.0455
     40 H           1.6740    6.1737    6.3304 H       4  LIG4        0.0626
     41 N           0.3138   -0.0765   10.5837 N.pl3   1  LIG1        0.0587
     42 N           3.1591    0.3497   10.1085 N.pl3   1  LIG1        0.0587
     43 N           4.4502    3.6822    4.6916 N.pl3   2  LIG2        0.0587
     44 N           1.5653    3.2155    4.3960 N.pl3   2  LIG2        0.0587
     45 N           6.0999    6.7606    2.0553 N.pl3   3  LIG3        0.0587
     46 N           3.1812    6.2540    1.8739 N.pl3   3  LIG3        0.0587
     47 N           3.2012   10.4049    3.7781 N.pl3   4  LIG4        0.0587
     48 N           0.4047    9.6494    3.8419 N.pl3   4  LIG4        0.0587
     49 O          -0.2089    5.1548    7.6563 O.3     1  LIG1       -0.4771
     50 H          -0.9244    5.6714    7.3547 H       1  LIG1        0.2954
     51 O          -1.8904    3.8972    8.4250 O.2     1  LIG1       -0.2451
     52 O          -0.7219   -0.5929   10.2177 O.2     1  LIG1       -0.1261
     53 O           0.9694   -0.4489   11.5492 O.2     1  LIG1       -0.1261
     54 O           3.0737   -0.7627    9.6467 O.2     1  LIG1       -0.1261
     55 O           4.0446    0.7516   10.8356 O.2     1  LIG1       -0.1261
     56 O           4.9374   -1.0109    1.0035 O.2     2  LIG2       -0.2451
     57 O           6.5826    0.0322    2.0810 O.3     2  LIG2       -0.4771
     58 H           7.1049   -0.5925    1.6288 H       2  LIG2        0.2954
     59 O           5.2774    3.4681    5.5462 O.2     2  LIG2       -0.1261
     60 O           4.0468    4.7866    4.3502 O.2     2  LIG2       -0.1261
     61 O           1.8229    3.6253    5.5112 O.2     2  LIG2       -0.1261
     62 O           0.5316    3.4422    3.7848 O.2     2  LIG2       -0.1261
     63 O           6.5064    1.4594   -0.7135 O.2     3  LIG3       -0.2451
     64 O           8.1680    2.6657    0.1583 O.3     3  LIG3       -0.4771
     65 H           8.6906    2.0281   -0.2687 H       3  LIG3        0.2954
     66 O           6.7261    7.4824    1.2963 O.2     3  LIG3       -0.1261
     67 O           5.9383    6.9379    3.2391 O.2     3  LIG3       -0.1261
     68 O           3.5095    7.4247    1.8958 O.2     3  LIG3       -0.1261
     69 O           2.0844    5.8156    2.2098 O.2     3  LIG3       -0.1261
     70 O           3.8299    5.5541    7.2753 O.3     4  LIG4       -0.4771
     71 H           4.5173    5.2047    7.7745 H       4  LIG4        0.2954
     72 O           5.5068    6.7881    6.4523 O.2     4  LIG4       -0.2451
     73 O           4.1341   10.3228    3.0079 O.2     4  LIG4       -0.1261
     74 O           2.5959   11.4231    4.0678 O.2     4  LIG4       -0.1261
     75 O           0.6429    9.9796    2.6991 O.2     4  LIG4       -0.1261
     76 O          -0.5959    9.9196    4.4733 O.2     4  LIG4       -0.1261
@<TRIPOS>BOND
     1    63    21    2
     2    65    64    1
     3    30    29    1
     4    21    64    1
     5    21    22    1
     6    29    22   ar
     7    29    27   ar
     8    22    23   ar
     9    28    27    1
    10    27    26   ar
    11    23    24    1
    12    23    25   ar
    13    56    11    2
    14    66    45    2
    15    26    25   ar
    16    26    46    1
    17    25    45    1
    18    58    57    1
    19    20    19    1
    20    11    57    1
    21    11    12    1
    22    46    68    2
    23    46    69    2
    24    45    67    2
    25    19    12   ar
    26    19    17   ar
    27    12    13   ar
    28    75    48    2
    29    18    17    1
    30    17    16   ar
    31    73    47    2
    32    13    14    1
    33    13    15   ar
    34    16    15   ar
    35    16    44    1
    36    47    74    2
    37    47    35    1
    38    62    44    2
    39    48    76    2
    40    48    36    1
    41    15    43    1
    42    60    43    2
    43    44    61    2
    44    35    36   ar
    45    35    33   ar
    46    36    37   ar
    47    43    59    2
    48    34    33    1
    49    33    32   ar
    50    37    38    1
    51    37    39   ar
    52    32    39   ar
    53    32    31    1
    54    39    40    1
    55    72    31    2
    56    31    70    1
    57    70    71    1
    58    50    49    1
    59    49     1    1
    60    10     9    1
    61     1    51    2
    62     1     2    1
    63     9     2   ar
    64     9     7   ar
    65     2     3   ar
    66     8     7    1
    67     7     6   ar
    68     3     4    1
    69     3     5   ar
    70    54    42    2
    71     6     5   ar
    72     6    42    1
    73     5    41    1
    74    42    55    2
    75    52    41    2
    76    41    53    2
