@<TRIPOS>MOLECULE
2-ethyl-6-methyl-3-hydroxypyridinium 3-carboxypropionate
 35 34 0 0 0
SMALL
GASTEIGER

@<TRIPOS>ATOM
      1 N           7.2300    0.8125    6.0863 N.pl3   1  LIG1       -0.3332
      2 H           8.0442    0.5977    6.2627 H       1  LIG1        0.1468
      3 C           7.0258    1.6955    5.0957 C.3     1  LIG1        0.1172
      4 C           5.7097    2.0511    4.7990 C.2     1  LIG1        0.1198
      5 O           5.5351    2.9284    3.8056 O.2     1  LIG1       -0.5088
      6 H           4.7385    3.1072    3.7361 H       1  LIG1        0.2917
      7 C           4.6872    1.4833    5.5333 C.2     1  LIG1       -0.0208
      8 H           3.8047    1.7108    5.3495 H       1  LIG1        0.0652
      9 C           4.9668    0.5860    6.5315 C.2     1  LIG1       -0.0421
     10 H           4.2697    0.2084    7.0171 H       1  LIG1        0.0634
     11 C           6.2641    0.2367    6.8260 C.2     1  LIG1        0.0016
     12 C           8.2020    2.2759    4.3795 C.3     1  LIG1       -0.0250
     13 H           7.9747    2.4021    3.4443 H       1  LIG1        0.0288
     14 H           8.9416    1.6497    4.4235 H       1  LIG1        0.0288
     15 C           8.6357    3.5989    4.9668 C.3     1  LIG1       -0.0628
     16 H           7.8783    4.1841    5.0329 H       1  LIG1        0.0231
     17 H           9.2995    3.9982    4.3997 H       1  LIG1        0.0231
     18 H           9.0063    3.4554    5.8405 H       1  LIG1        0.0231
     19 C           6.6748   -0.7244    7.8862 C.3     1  LIG1       -0.0268
     20 H           7.0040   -1.5286    7.4787 H       1  LIG1        0.0290
     21 H           5.9191   -0.9322    8.4405 H       1  LIG1        0.0290
     22 H           7.3675   -0.3319    8.4231 H       1  LIG1        0.0290
     23 C          13.2652    3.0539    7.9270 C.2     2  LIG2        0.3565
     24 O          14.3465    2.4556    7.9508 O.co2   2  LIG2       -0.2464
     25 O          13.1314    4.2707    8.2343 O.co2   2  LIG2       -0.2464
     26 C          12.0247    2.3034    7.5182 C.3     2  LIG2        0.0592
     27 H          11.4302    2.2624    8.2826 H       2  LIG2        0.0384
     28 H          11.5749    2.8164    6.8289 H       2  LIG2        0.0384
     29 C          12.2202    0.9344    7.0162 C.3     2  LIG2        0.0549
     30 H          12.6806    0.4155    7.6944 H       2  LIG2        0.0383
     31 H          12.7903    0.9671    6.2324 H       2  LIG2        0.0383
     32 C          10.9363    0.2335    6.6546 C.2     2  LIG2        0.3052
     33 O          11.1051   -0.8919    6.0544 O.3     2  LIG2       -0.4806
     34 H          10.3750   -1.2204    5.8791 H       2  LIG2        0.2951
     35 O           9.8523    0.7108    6.9081 O.2     2  LIG2       -0.2510
@<TRIPOS>BOND
     1    13    12    1
     2     6     5    1
     3     5     4    1
     4    12    14    1
     5    12    15    1
     6    12     3    1
     7    17    15    1
     8     4     3    1
     9     4     7    2
    10    15    16    1
    11    15    18    1
    12     3     1    1
    13     8     7    1
    14     7     9    1
    15    34    33    1
    16    33    32    1
    17     1     2    1
    18     1    11    1
    19    31    29    1
    20     9    11    2
    21     9    10    1
    22    32    35    2
    23    32    29    1
    24    11    19    1
    25    28    26    1
    26    29    26    1
    27    29    30    1
    28    20    19    1
    29    26    23    1
    30    26    27    1
    31    19    22    1
    32    19    21    1
    33    23    24   ar
    34    23    25   ar
