@<TRIPOS>MOLECULE
<i>N</i>-{4-[(<i>E</i>)-3-(4-Ethoxyphenyl)prop-2-enoyl]phenyl}benzenesulfonamide
 50 52 0 0 0
SMALL
GASTEIGER

@<TRIPOS>ATOM
      1 S           2.5861    2.3884    5.3260 S.O2    1  LIG1        0.0723
      2 N           2.7720    3.3730    6.6283 N.pl3   1  LIG1       -0.2163
      3 O           3.4290    2.9514    4.3214 O.2     1  LIG1       -0.1500
      4 O           2.7932    1.0390    5.7323 O.2     1  LIG1       -0.1500
      5 O          -2.5646   -3.4050   15.8841 O.3     1  LIG1       -0.4922
      6 C           0.9150    2.5666    4.7969 C.ar    1  LIG1        0.1085
      7 C           2.0430    3.1861    7.8356 C.ar    1  LIG1        0.0481
      8 C          -0.0132    1.5905    5.0967 C.ar    1  LIG1       -0.0351
      9 H           0.2341    0.8346    5.5771 H       1  LIG1        0.0637
     10 C          -0.1242    2.7974   11.5291 C.2     1  LIG1        0.1861
     11 C          -1.1739   -1.1998   13.3970 C.ar    1  LIG1       -0.0511
     12 H          -0.6663   -1.2861   12.6232 H       1  LIG1        0.0625
     13 C           0.6475    2.8960   10.2442 C.ar    1  LIG1        0.0218
     14 C          -2.2833   -2.2217   15.2567 C.ar    1  LIG1        0.1205
     15 O          -0.5209    3.8227   12.0779 O.2     1  LIG1       -0.2873
     16 C          -3.1840   -3.3474   17.1757 C.3     1  LIG1        0.0868
     17 H          -4.0674   -2.9553   17.1050 H       1  LIG1        0.0694
     18 H          -2.6523   -2.8021   17.7768 H       1  LIG1        0.0694
     19 C          -1.1625    1.3063   13.1670 C.2     1  LIG1       -0.0510
     20 H          -1.4976    2.0864   13.5459 H       1  LIG1        0.0625
     21 C           0.8065    4.1356    9.6535 C.ar    1  LIG1       -0.0492
     22 H           0.4513    4.8865   10.0700 H       1  LIG1        0.0625
     23 C          -2.6788   -0.9924   15.7062 C.ar    1  LIG1       -0.0194
     24 H          -3.1882   -0.9172   16.4803 H       1  LIG1        0.0654
     25 C          -2.3104    0.1437   14.9927 C.ar    1  LIG1       -0.0511
     26 H          -2.5864    0.9757   15.3018 H       1  LIG1        0.0625
     27 C           1.4804    4.2811    8.4593 C.ar    1  LIG1       -0.0387
     28 H           1.5557    5.1223    8.0719 H       1  LIG1        0.0637
     29 C          -1.5435   -2.3223   14.0838 C.ar    1  LIG1       -0.0194
     30 H          -1.2973   -3.1609   13.7644 H       1  LIG1        0.0654
     31 C          -1.5442    0.0790   13.8346 C.ar    1  LIG1       -0.0247
     32 C           0.5520    3.7122    4.1236 C.ar    1  LIG1       -0.0351
     33 H           1.1779    4.3805    3.9602 H       1  LIG1        0.0637
     34 C           1.9243    1.9451    8.4391 C.ar    1  LIG1       -0.0387
     35 H           2.3245    1.2015    8.0495 H       1  LIG1        0.0637
     36 C          -1.3244    1.7568    4.6694 C.ar    1  LIG1       -0.0599
     37 H          -1.9625    1.1087    4.8655 H       1  LIG1        0.0618
     38 C          -0.4058    1.4744   12.0943 C.2     1  LIG1       -0.0138
     39 H          -0.0383    0.7257   11.6831 H       1  LIG1        0.0656
     40 C          -1.6773    2.8704    3.9612 C.ar    1  LIG1       -0.0616
     41 H          -2.5502    2.9653    3.6559 H       1  LIG1        0.0618
     42 C           1.2125    1.8062    9.6178 C.ar    1  LIG1       -0.0492
     43 H           1.1146    0.9616    9.9942 H       1  LIG1        0.0625
     44 C          -0.7475    3.8570    3.6951 C.ar    1  LIG1       -0.0599
     45 H          -1.0004    4.6184    3.2263 H       1  LIG1        0.0618
     46 C          -3.2814   -4.7504   17.7000 C.3     1  LIG1       -0.0307
     47 H          -3.6944   -4.7393   18.5666 H       1  LIG1        0.0262
     48 H          -2.4014   -5.1284   17.7693 H       1  LIG1        0.0262
     49 H          -3.8111   -5.2796   17.1000 H       1  LIG1        0.0262
     50 H           2.8815    4.2495    6.4078 H       1  LIG1        0.1737
@<TRIPOS>BOND
     1    45    44    1
     2    41    40    1
     3    44    40   ar
     4    44    32   ar
     5    33    32    1
     6    40    36   ar
     7    32     6   ar
     8     3     1    2
     9    36    37    1
    10    36     8   ar
    11     6     8   ar
    12     6     1    1
    13     8     9    1
    14     1     4    2
    15     1     2    1
    16    50     2    1
    17     2     7    1
    18     7    34   ar
    19     7    27   ar
    20    35    34    1
    21    28    27    1
    22    34    42   ar
    23    27    21   ar
    24    42    43    1
    25    42    13   ar
    26    21    22    1
    27    21    13   ar
    28    13    10    1
    29    10    15    2
    30    10    38    1
    31    39    38    1
    32    38    19    2
    33    12    11    1
    34    19    20    1
    35    19    31    1
    36    11    31   ar
    37    11    29   ar
    38    30    29    1
    39    31    25   ar
    40    29    14   ar
    41    25    26    1
    42    25    23   ar
    43    14    23   ar
    44    14     5    1
    45    23    24    1
    46     5    16    1
    47    49    46    1
    48    17    16    1
    49    16    46    1
    50    16    18    1
    51    46    48    1
    52    46    47    1
