@<TRIPOS>MOLECULE
Ethylenediammonium bis(5-chloroquinolin-8-olate)
 24 24 0 0 0
SMALL
GASTEIGER

@<TRIPOS>ATOM
      1 CL          0.1843    4.9852    6.2292 Cl      1  LIG1       -0.0829
      2 C           3.4992    1.3469    4.2648 C.ar    1  LIG1        0.0284
      3 H           3.8727    0.5754    3.8561 H       1  LIG1        0.0830
      4 C           2.0955    1.4391    4.3379 C.ar    1  LIG1       -0.0430
      5 H           1.5453    0.7503    3.9839 H       1  LIG1        0.0633
      6 C           1.5442    2.5298    4.9231 C.ar    1  LIG1       -0.0496
      7 H           0.5991    2.6090    4.9858 H       1  LIG1        0.0625
      8 C           2.3760    3.5514    5.4411 C.ar    1  LIG1        0.0224
      9 C           1.9013    4.7308    6.0615 C.ar    1  LIG1        0.0504
     10 C           2.7630    5.6739    6.5334 C.ar    1  LIG1       -0.0391
     11 H           2.4233    6.4583    6.9477 H       1  LIG1        0.0633
     12 C           4.1538    5.4928    6.4102 C.ar    1  LIG1       -0.0114
     13 H           4.7341    6.1618    6.7529 H       1  LIG1        0.0657
     14 C           4.7042    4.3755    5.8084 C.ar    1  LIG1        0.2048
     15 C           3.7875    3.3716    5.3114 C.ar    1  LIG1        0.1188
     16 C           7.5824    3.8876    8.6279 C.3     1  LIG1        0.0056
     17 O           6.0133    4.1995    5.6804 O.3     1  LIG1       -0.2856
     18 N           4.3268    2.2619    4.7271 N.ar    1  LIG1       -0.2511
     19 N           7.1346    5.1388    7.9844 N.4     1  LIG1        0.2223
     20 H           8.2753    3.4988    8.0443 H       1  LIG1        0.0866
     21 H           6.5107    5.4736    8.5227 H       1  LIG1        0.1996
     22 H           7.9573    4.1069    9.4967 H       1  LIG1        0.0866
     23 H           6.8033    4.9338    7.1747 H       1  LIG1        0.1996
     24 H           7.8074    5.7333    7.8878 H       1  LIG1        0.1996
@<TRIPOS>BOND
     1     3     2    1
     2     5     4    1
     3     2     4   ar
     4     2    18   ar
     5     4     6   ar
     6    18    15   ar
     7     6     7    1
     8     6     8   ar
     9    15     8   ar
    10    15    14   ar
    11     8     9   ar
    12    17    14    1
    13    14    12   ar
    14     9     1    1
    15     9    10   ar
    16    12    10   ar
    17    12    13    1
    18    10    11    1
    19    23    19    1
    20    24    19    1
    21    19    21    1
    22    19    16    1
    23    20    16    1
    24    16    22    1
