@<TRIPOS>MOLECULE
4-Cyano-<i>N</i>-phenylbenzenesulfonamide
 28 29 0 0 0
SMALL
GASTEIGER

@<TRIPOS>ATOM
      1 S           4.4970    2.4840    2.5526 S.O2    1  LIG1        0.0723
      2 O           4.1545    2.2272    1.1835 O.2     1  LIG1       -0.1500
      3 O           4.8001    3.8106    2.9785 O.2     1  LIG1       -0.1500
      4 N           3.2469    1.9788    3.4774 N.pl3   1  LIG1       -0.2163
      5 H           3.4931    2.0808    4.2886 H       1  LIG1        0.1737
      6 N           9.9153   -1.6957    4.4632 N.1     1  LIG1       -0.1909
      7 C           5.8680    1.4463    2.9760 C.ar    1  LIG1        0.1086
      8 C           6.6778    1.8321    4.0420 C.ar    1  LIG1       -0.0339
      9 H           6.5197    2.6508    4.4969 H       1  LIG1        0.0637
     10 C           7.7153    1.0048    4.4275 C.ar    1  LIG1       -0.0425
     11 H           8.2804    1.2516    5.1504 H       1  LIG1        0.0631
     12 C           7.9287   -0.1961    3.7474 C.ar    1  LIG1        0.0519
     13 C           7.1152   -0.5719    2.6865 C.ar    1  LIG1       -0.0425
     14 H           7.2749   -1.3884    2.2275 H       1  LIG1        0.0631
     15 C           6.0673    0.2551    2.3010 C.ar    1  LIG1       -0.0339
     16 H           5.4960    0.0060    1.5842 H       1  LIG1        0.0637
     17 C           2.6121    0.7156    3.1996 C.ar    1  LIG1        0.0480
     18 C           2.8254   -0.3688    4.0354 C.ar    1  LIG1       -0.0393
     19 H           3.4386   -0.3012    4.7578 H       1  LIG1        0.0636
     20 C           2.1403   -1.5509    3.8133 C.ar    1  LIG1       -0.0600
     21 H           2.2634   -2.2884    4.3989 H       1  LIG1        0.0618
     22 C           1.2759   -1.6570    2.7396 C.ar    1  LIG1       -0.0616
     23 H           0.8076   -2.4696    2.5844 H       1  LIG1        0.0618
     24 C           1.0927   -0.5826    1.8936 C.ar    1  LIG1       -0.0600
     25 H           0.5149   -0.6660    1.1447 H       1  LIG1        0.0618
     26 C           1.7459    0.6179    2.1285 C.ar    1  LIG1       -0.0393
     27 H           1.5991    1.3644    1.5587 H       1  LIG1        0.0636
     28 C           9.0301   -1.0440    4.1477 C.1     1  LIG1        0.0992
@<TRIPOS>BOND
     1    25    24    1
     2     2     1    2
     3    27    26    1
     4    16    15    1
     5    24    26   ar
     6    24    22   ar
     7    26    17   ar
     8    14    13    1
     9    15    13   ar
    10    15     7   ar
    11     1     7    1
    12     1     3    2
    13     1     4    1
    14    23    22    1
    15    13    12   ar
    16    22    20   ar
    17     7     8   ar
    18    17     4    1
    19    17    18   ar
    20     4     5    1
    21    12    28    1
    22    12    10   ar
    23    20    18   ar
    24    20    21    1
    25    18    19    1
    26     8    10   ar
    27     8     9    1
    28    28     6    3
    29    10    11    1
