@<TRIPOS>MOLECULE
Dimethyl (2<i>S</i>)-2-{bis[(<i>tert</i>-butoxycarbonyl]amino}butanedioate
 52 51 0 0 0
SMALL
GASTEIGER

@<TRIPOS>ATOM
      1 O           0.6345    4.2615   15.4529 O.2     1  LIG1       -0.2487
      2 O           2.7506    4.3967   14.6992 O.3     1  LIG1       -0.4666
      3 O          -0.1409    7.6486   15.1500 O.2     1  LIG1       -0.2508
      4 O          -2.0707    7.4659   14.0166 O.3     1  LIG1       -0.4679
      5 O           1.8181    7.5697   11.7021 O.2     1  LIG1       -0.2257
      6 O           3.3057    6.0982   10.8104 O.3     1  LIG1       -0.4442
      7 O           1.6734    3.9829   10.4554 O.2     1  LIG1       -0.2257
      8 O           0.8964    3.3381   12.4861 O.3     1  LIG1       -0.4442
      9 N           1.7887    5.3605   12.3055 N.am    1  LIG1       -0.1583
     10 C           3.1689    3.5441   15.7887 C.3     1  LIG1        0.0817
     11 H           2.8864    3.9398   16.6385 H       1  LIG1        0.0661
     12 H           4.1448    3.4551   15.7765 H       1  LIG1        0.0661
     13 H           2.7591    2.6602   15.6874 H       1  LIG1        0.0661
     14 C           1.4427    4.6793   14.6662 C.2     1  LIG1        0.3288
     15 C           1.1285    5.6981   13.5714 C.3     1  LIG1        0.1466
     16 H           1.5338    6.5614   13.8742 H       1  LIG1        0.0629
     17 C          -0.3715    5.9597   13.4380 C.3     1  LIG1        0.0745
     18 H          -0.5857    6.1635   12.4937 H       1  LIG1        0.0402
     19 H          -0.8705    5.1441   13.6959 H       1  LIG1        0.0402
     20 C          -0.8121    7.1086   14.3082 C.2     1  LIG1        0.3092
     21 C          -2.6436    8.5063   14.8432 C.3     1  LIG1        0.0817
     22 H          -2.7437    8.1763   15.7600 H       1  LIG1        0.0661
     23 H          -3.5224    8.7582   14.4885 H       1  LIG1        0.0661
     24 H          -2.0538    9.2881   14.8386 H       1  LIG1        0.0661
     25 C           2.2851    6.4649   11.5700 C.2     1  LIG1        0.4131
     26 C           3.7586    6.9553    9.6872 C.3     1  LIG1        0.1068
     27 C           4.3627    8.2479   10.2113 C.3     1  LIG1       -0.0253
     28 H           3.6687    8.7736   10.6608 H       1  LIG1        0.0268
     29 H           4.7305    8.7640    9.4619 H       1  LIG1        0.0268
     30 H           5.0781    8.0394   10.8490 H       1  LIG1        0.0268
     31 C           4.8140    6.0806    9.0326 C.3     1  LIG1       -0.0253
     32 H           5.5252    5.8889    9.6799 H       1  LIG1        0.0268
     33 H           5.1918    6.5479    8.2598 H       1  LIG1        0.0268
     34 H           4.4048    5.2405    8.7387 H       1  LIG1        0.0268
     35 C           2.5903    7.2010    8.7466 C.3     1  LIG1       -0.0253
     36 H           2.1740    6.3456    8.5108 H       1  LIG1        0.0268
     37 H           2.9124    7.6415    7.9328 H       1  LIG1        0.0268
     38 H           1.9300    7.7745    9.1878 H       1  LIG1        0.0268
     39 C           1.4746    4.1764   11.6288 C.2     1  LIG1        0.4131
     40 C           0.2973    2.0723   11.9917 C.3     1  LIG1        0.1068
     41 C          -0.2854    1.4754   13.2599 C.3     1  LIG1       -0.0253
     42 H           0.4252    1.3653   13.9271 H       1  LIG1        0.0268
     43 H          -0.6822    0.6022   13.0585 H       1  LIG1        0.0268
     44 H          -0.9759    2.0735   13.6166 H       1  LIG1        0.0268
     45 C          -0.7971    2.3929   10.9944 C.3     1  LIG1       -0.0253
     46 H          -1.4118    3.0495   11.3841 H       1  LIG1        0.0268
     47 H          -1.2898    1.5744   10.7764 H       1  LIG1        0.0268
     48 H          -0.3986    2.7624   10.1786 H       1  LIG1        0.0268
     49 C           1.3852    1.1730   11.4349 C.3     1  LIG1       -0.0253
     50 H           1.7529    1.5724   10.6179 H       1  LIG1        0.0268
     51 H           1.0073    0.2929   11.2255 H       1  LIG1        0.0268
     52 H           2.0982    1.0724   12.1007 H       1  LIG1        0.0268
@<TRIPOS>BOND
     1    37    35    1
     2    33    31    1
     3    36    35    1
     4    34    31    1
     5    35    38    1
     6    35    26    1
     7    31    32    1
     8    31    26    1
     9    29    27    1
    10    26    27    1
    11    26     6    1
    12    48    45    1
    13    27    28    1
    14    27    30    1
    15     7    39    2
    16    50    49    1
    17    47    45    1
    18     6    25    1
    19    45    46    1
    20    45    40    1
    21    51    49    1
    22    49    40    1
    23    49    52    1
    24    25     5    2
    25    25     9   am
    26    39     9   am
    27    39     8    1
    28    40     8    1
    29    40    41    1
    30     9    15    1
    31    18    17    1
    32    43    41    1
    33    41    44    1
    34    41    42    1
    35    17    15    1
    36    17    19    1
    37    17    20    1
    38    15    16    1
    39    15    14    1
    40     4    20    1
    41     4    21    1
    42    20     3    2
    43    23    21    1
    44    14     2    1
    45    14     1    2
    46     2    10    1
    47    24    21    1
    48    21    22    1
    49    13    10    1
    50    12    10    1
    51    10    11    1
