@<TRIPOS>MOLECULE
(<i>E</i>)-2-(2-(3-bromobenzylidene)hydrazinyl)quinoxaline
 31 33 0 0 0
SMALL
GASTEIGER

@<TRIPOS>ATOM
      1 BR         -1.6819    1.3714    7.7825 Br      1  LIG1       -0.0503
      2 N           5.5019    3.2106    6.5886 N.pl3   1  LIG1       -0.2197
      3 H           5.5518    3.1646    7.4650 H       1  LIG1        0.1760
      4 N           4.3251    2.9349    5.9560 N.2     1  LIG1       -0.1887
      5 N           7.6904    3.8679    6.5391 N.ar    1  LIG1       -0.2275
      6 N           7.6316    3.8823    3.7131 N.ar    1  LIG1       -0.2500
      7 C           3.3420    2.5987    6.7181 C.2     1  LIG1        0.0528
      8 H           3.4833    2.5197    7.6547 H       1  LIG1        0.0851
      9 C           6.6106    3.5599    5.8535 C.ar    1  LIG1        0.1570
     10 C           6.5768    3.5681    4.4210 C.ar    1  LIG1        0.0696
     11 H           5.7698    3.3399    3.9758 H       1  LIG1        0.0865
     12 C           8.7893    4.1958    4.3963 C.ar    1  LIG1        0.0893
     13 C           9.9661    4.5224    3.6824 C.ar    1  LIG1       -0.0342
     14 H           9.9535    4.5561    2.7330 H       1  LIG1        0.0639
     15 C          11.1270    4.7912    4.3657 C.ar    1  LIG1       -0.0596
     16 H          11.9182    5.0029    3.8851 H       1  LIG1        0.0618
     17 C          11.1534    4.7547    5.7769 C.ar    1  LIG1       -0.0596
     18 H          11.9622    4.9356    6.2387 H       1  LIG1        0.0618
     19 C          10.0171    4.4598    6.4873 C.ar    1  LIG1       -0.0342
     20 H          10.0428    4.4454    7.4367 H       1  LIG1        0.0639
     21 C           8.8056    4.1772    5.8111 C.ar    1  LIG1        0.0913
     22 C           2.0135    2.3361    6.1668 C.ar    1  LIG1       -0.0044
     23 C           0.9867    2.0192    7.0515 C.ar    1  LIG1       -0.0391
     24 H           1.1637    1.9415    7.9821 H       1  LIG1        0.0635
     25 C          -0.2959    1.8184    6.5615 C.ar    1  LIG1        0.0185
     26 C          -0.5926    1.9222    5.2150 C.ar    1  LIG1       -0.0477
     27 H          -1.4757    1.7847    4.8970 H       1  LIG1        0.0629
     28 C           0.4480    2.2351    4.3350 C.ar    1  LIG1       -0.0601
     29 H           0.2703    2.3059    3.4044 H       1  LIG1        0.0618
     30 C           1.7377    2.4454    4.8027 C.ar    1  LIG1       -0.0530
     31 H           2.4323    2.6634    4.1949 H       1  LIG1        0.0624
@<TRIPOS>BOND
     1    14    13    1
     2    29    28    1
     3    13    15   ar
     4    13    12   ar
     5     6    12   ar
     6     6    10   ar
     7    16    15    1
     8    11    10    1
     9    31    30    1
    10    28    30   ar
    11    28    26   ar
    12    15    17   ar
    13    12    21   ar
    14    10     9   ar
    15    30    22   ar
    16    27    26    1
    17    26    25   ar
    18    17    18    1
    19    17    19   ar
    20    21    19   ar
    21    21     5   ar
    22     9     5   ar
    23     9     2    1
    24     4     2    1
    25     4     7    2
    26    22     7    1
    27    22    23   ar
    28    19    20    1
    29    25    23   ar
    30    25     1    1
    31     2     3    1
    32     7     8    1
    33    23    24    1
