@<TRIPOS>MOLECULE
2-Phenyl-1,10-phenanthrolin-1-ium trifluoromethanesulfonate
 41 43 0 0 0
SMALL
GASTEIGER

@<TRIPOS>ATOM
      1 N           5.3025    3.1514    2.6326 N.pl3   1  LIG1       -0.3189
      2 H           4.9783    3.8488    2.8874 H       1  LIG1        0.1517
      3 N           4.3401    3.5752    5.1586 N.ar    1  LIG1       -0.2448
      4 C           5.7251    3.0253    1.3783 C.2     1  LIG1       -0.0095
      5 H           5.6564    3.7578    0.7773 H       1  LIG1        0.0778
      6 C           6.2662    1.8208    0.9487 C.2     1  LIG1       -0.0619
      7 H           6.5529    1.7166    0.0488 H       1  LIG1        0.0591
      8 C           6.3834    0.7800    1.8407 C.3     1  LIG1        0.0158
      9 H           6.7541   -0.0453    1.5526 H       1  LIG1        0.0401
     10 C           5.9597    0.9239    3.1744 C.ar    1  LIG1       -0.0164
     11 C           5.3905    2.1537    3.5531 C.ar    1  LIG1        0.0610
     12 C           6.0933   -0.1029    4.1693 C.ar    1  LIG1       -0.0555
     13 H           6.4758   -0.9397    3.9324 H       1  LIG1        0.0621
     14 C           5.6819    0.1093    5.4377 C.ar    1  LIG1       -0.0522
     15 H           5.8058   -0.5733    6.0871 H       1  LIG1        0.0624
     16 C           5.0627    1.3417    5.8246 C.ar    1  LIG1        0.0023
     17 C           4.9098    2.3794    4.8903 C.ar    1  LIG1        0.0930
     18 C           4.5612    1.5912    7.1193 C.ar    1  LIG1       -0.0505
     19 H           4.6407    0.9301    7.7968 H       1  LIG1        0.0625
     20 C           3.9602    2.7899    7.3962 C.ar    1  LIG1       -0.0351
     21 H           3.6060    2.9563    8.2620 H       1  LIG1        0.0639
     22 C           3.8672    3.7844    6.3849 C.ar    1  LIG1        0.0717
     23 C           3.2512    5.1148    6.6513 C.ar    1  LIG1        0.0004
     24 C           2.7952    5.4758    7.9215 C.ar    1  LIG1       -0.0526
     25 H           2.8557    4.8553    8.6379 H       1  LIG1        0.0624
     26 C           2.2563    6.7332    8.1434 C.ar    1  LIG1       -0.0611
     27 H           1.9526    6.9694    9.0117 H       1  LIG1        0.0618
     28 C           2.1583    7.6467    7.1081 C.ar    1  LIG1       -0.0617
     29 H           1.7950    8.5106    7.2648 H       1  LIG1        0.0618
     30 C           2.5943    7.2929    5.8398 C.ar    1  LIG1       -0.0611
     31 H           2.5174    7.9137    5.1250 H       1  LIG1        0.0618
     32 C           3.1396    6.0428    5.6075 C.ar    1  LIG1       -0.0526
     33 H           3.4389    5.8124    4.7363 H       1  LIG1        0.0624
     34 S           4.7508    6.8624    1.4903 S.3     2  LIG2        0.2092
     35 O           5.1206    6.4043    0.1800 O.2     2  LIG2       -0.1362
     36 F           3.0036    8.5321    0.4656 F       2  LIG2       -0.1486
     37 F           2.5416    7.8728    2.4557 F       2  LIG2       -0.1486
     38 F           2.2407    6.5478    0.7998 F       2  LIG2       -0.1486
     39 O           4.5841    5.8256    2.4794 O.3     2  LIG2       -0.0397
     40 O           5.4621    8.0256    1.9549 O.2     2  LIG2       -0.1362
     41 C           3.0465    7.4796    1.2852 C.3     2  LIG2        0.5487
@<TRIPOS>BOND
     1     7     6    1
     2    35    34    2
     3    36    41    1
     4     5     4    1
     5    38    41    1
     6     6     4    2
     7     6     8    1
     8    41    34    1
     9    41    37    1
    10     4     1    1
    11    34    40    2
    12    34    39    1
    13     9     8    1
    14     8    10    1
    15     1     2    1
    16     1    11    1
    17    10    11   ar
    18    10    12   ar
    19    11    17   ar
    20    13    12    1
    21    12    14   ar
    22    33    32    1
    23    17     3   ar
    24    17    16   ar
    25    31    30    1
    26     3    22   ar
    27    14    16   ar
    28    14    15    1
    29    32    30   ar
    30    32    23   ar
    31    16    18   ar
    32    30    28   ar
    33    22    23    1
    34    22    20   ar
    35    23    24   ar
    36    28    29    1
    37    28    26   ar
    38    18    20   ar
    39    18    19    1
    40    20    21    1
    41    24    26   ar
    42    24    25    1
    43    26    27    1
