@<TRIPOS>MOLECULE
Pyrimidin-2-amine--glutaric acid (1/1)
 17 15 0 0 0
SMALL
GASTEIGER

@<TRIPOS>ATOM
      1 O           0.3383    5.7633    8.6146 O.3     1  LIG1       -0.4806
      2 O           1.1938    3.8884    7.7474 O.2     1  LIG1       -0.2510
      3 N           0.2625    4.6978    5.0809 N.2     2  LIG2       -0.2790
      4 N          -0.8333    6.3354    6.2758 N.2     2  LIG2       -0.2376
      5 C          -0.4808    5.8081    5.0809 C.2     2  LIG2        0.1895
      6 C          -1.6071    7.4270    6.2579 C.2     2  LIG2        0.0119
      7 C          -2.0392    8.0130    5.0809 C.3     2  LIG2        0.0110
      8 C           1.0542    4.6522    8.6789 C.2     1  LIG1        0.3050
      9 C           1.6808    4.4528   10.0373 C.3     1  LIG1        0.0481
     10 C           2.4838    3.1664   10.1619 C.3     1  LIG1       -0.0238
     11 H           0.5500    4.3912    5.8289 H       2  LIG2        0.1885
     12 H          -0.0500    5.8528    7.7962 H       1  LIG1        0.2951
     13 H          -1.8500    7.8173    7.0869 H       2  LIG2        0.0786
     14 H          -2.5834    8.7647    5.0809 H       2  LIG2        0.0371
     15 H           0.9667    4.5027   10.6924 H       1  LIG1        0.0380
     16 H           2.2459    5.2563   10.1985 H       1  LIG1        0.0380
     17 H           3.0500    3.0942    9.3896 H       1  LIG1        0.0312
@<TRIPOS>BOND
     1     3     5    2
     2     3    11    1
     3     5     4    1
     4     7    14    1
     5     7     6    1
     6     6     4    2
     7     6    13    1
     8     2     8    2
     9    12     1    1
    10     1     8    1
    11     8     9    1
    12    17    10    1
    13     9    10    1
    14     9    16    1
    15     9    15    1
