@<TRIPOS>MOLECULE
2,5-Bis{2-methyl-5-[2-(pyridin-3-yl)ethenyl]phenyl}-1,3,4-oxadiazole
 55 59 0 0 0
SMALL
GASTEIGER

@<TRIPOS>ATOM
      1 C           0.2157    7.0656    7.9710 C.ar    1  LIG1        0.0276
      2 H          -0.2376    7.6574    8.5260 H       1  LIG1        0.0829
      3 C           1.3705    7.4975    7.3837 C.ar    1  LIG1       -0.0424
      4 H           1.6764    8.3648    7.5201 H       1  LIG1        0.0633
      5 C           2.0678    6.6276    6.5886 C.ar    1  LIG1       -0.0434
      6 H           2.8660    6.8908    6.1911 H       1  LIG1        0.0631
      7 C           1.5721    5.3534    6.3859 C.ar    1  LIG1        0.0433
      8 C           0.3760    5.0370    7.0080 C.ar    1  LIG1        0.0429
      9 H           0.0214    4.1904    6.8618 H       1  LIG1        0.0842
     10 C           2.2937    4.4234    5.5755 C.1     1  LIG1       -0.0595
     11 C           2.9875    3.7089    4.9179 C.1     1  LIG1       -0.0610
     12 C           3.9417    2.9291    4.1836 C.ar    1  LIG1        0.0260
     13 C           5.2851    3.2911    4.2204 C.ar    1  LIG1       -0.0460
     14 H           5.5522    4.0473    4.6920 H       1  LIG1        0.0630
     15 C           6.2132    2.5264    3.5569 C.ar    1  LIG1       -0.0570
     16 H           7.1082    2.7731    3.6072 H       1  LIG1        0.0621
     17 C           5.8790    1.4094    2.8179 C.ar    1  LIG1       -0.0381
     18 C           6.9627    0.6080    2.1700 C.3     1  LIG1       -0.0390
     19 H           7.7896    1.0936    2.2141 H       1  LIG1        0.0278
     20 H           6.7353    0.4452    1.2525 H       1  LIG1        0.0278
     21 H           7.0603   -0.2294    2.6283 H       1  LIG1        0.0278
     22 C           4.5132    1.0748    2.7311 C.ar    1  LIG1        0.0425
     23 C           3.5737    1.8215    3.4309 C.ar    1  LIG1       -0.0338
     24 H           2.6779    1.5739    3.3951 H       1  LIG1        0.0637
     25 C           4.0318   -0.0203    1.8916 C.ar    1  LIG1        0.2490
     26 C           2.5573   -1.2282    0.9184 C.ar    1  LIG1        0.2490
     27 C           1.2038   -1.6571    0.5742 C.ar    1  LIG1        0.0425
     28 C           0.9450   -2.6031   -0.4293 C.ar    1  LIG1       -0.0381
     29 C           2.0213   -3.2687   -1.2390 C.3     1  LIG1       -0.0390
     30 H           1.6236   -3.9076   -1.8344 H       1  LIG1        0.0278
     31 H           2.6334   -3.7168   -0.6509 H       1  LIG1        0.0278
     32 H           2.4948   -2.6062   -1.7481 H       1  LIG1        0.0278
     33 C          -0.3854   -2.9210   -0.6743 C.ar    1  LIG1       -0.0570
     34 H          -0.5791   -3.5317   -1.3487 H       1  LIG1        0.0621
     35 C          -1.4253   -2.3775    0.0303 C.ar    1  LIG1       -0.0460
     36 H          -2.3001   -2.6289   -0.1627 H       1  LIG1        0.0630
     37 C          -1.1738   -1.4522    1.0309 C.ar    1  LIG1        0.0260
     38 C           0.1462   -1.0977    1.2890 C.ar    1  LIG1       -0.0338
     39 H           0.3267   -0.4735    1.9528 H       1  LIG1        0.0637
     40 C          -2.2602   -0.8790    1.7750 C.1     1  LIG1       -0.0610
     41 C          -3.1969   -0.4447    2.3756 C.1     1  LIG1       -0.0595
     42 C          -4.3006    0.0475    3.1380 C.ar    1  LIG1        0.0433
     43 C          -4.9548    1.2255    2.8468 C.ar    1  LIG1       -0.0434
     44 H          -4.7042    1.7329    2.1081 H       1  LIG1        0.0631
     45 C          -5.9780    1.6409    3.6580 C.ar    1  LIG1       -0.0424
     46 H          -6.4185    2.4415    3.4888 H       1  LIG1        0.0633
     47 C          -6.3406    0.8645    4.7164 C.ar    1  LIG1        0.0276
     48 H          -7.0306    1.1617    5.2641 H       1  LIG1        0.0829
     49 C          -4.7584   -0.6707    4.2288 C.ar    1  LIG1        0.0429
     50 H          -4.3329   -1.4729    4.4282 H       1  LIG1        0.0842
     51 N          -0.2983    5.8616    7.7999 N.ar    1  LIG1       -0.2620
     52 N           4.6746   -0.9022    1.2084 N.ar    1  LIG1       -0.1069
     53 N           3.7059   -1.6939    0.5641 N.ar    1  LIG1       -0.1069
     54 N          -5.7592   -0.2971    5.0084 N.ar    1  LIG1       -0.2620
     55 O           2.6831   -0.1638    1.7592 O.2     1  LIG1       -0.4158
@<TRIPOS>BOND
     1    30    29    1
     2    32    29    1
     3    34    33    1
     4    29    31    1
     5    29    28    1
     6    33    28   ar
     7    33    35   ar
     8    28    27   ar
     9    36    35    1
    10    35    37   ar
    11    53    26   ar
    12    53    52   ar
    13    27    26    1
    14    27    38   ar
    15    26    55   ar
    16    37    38   ar
    17    37    40    1
    18    52    25   ar
    19    20    18    1
    20    38    39    1
    21    55    25   ar
    22    40    41    3
    23    25    22    1
    24    44    43    1
    25    18    19    1
    26    18    21    1
    27    18    17    1
    28    41    42    1
    29    22    17   ar
    30    22    23   ar
    31    17    15   ar
    32    43    42   ar
    33    43    45   ar
    34    42    49   ar
    35    24    23    1
    36    23    12   ar
    37    46    45    1
    38    15    16    1
    39    15    13   ar
    40    45    47   ar
    41    12    13   ar
    42    12    11    1
    43    13    14    1
    44    49    50    1
    45    49    54   ar
    46    47    54   ar
    47    47    48    1
    48    11    10    3
    49    10     7    1
    50     6     5    1
    51     7     5   ar
    52     7     8   ar
    53     5     3   ar
    54     9     8    1
    55     8    51   ar
    56     3     4    1
    57     3     1   ar
    58    51     1   ar
    59     1     2    1
