@<TRIPOS>MOLECULE
2-Isopropyl-2,3-dihydro-1<i>H</i>-isoindol-1-one
 26 27 0 0 0
SMALL
GASTEIGER

@<TRIPOS>ATOM
      1 C           1.5292    5.1453    1.5269 C.ar    1  LIG1        0.0416
      2 C           0.6917    4.9382    0.4341 C.ar    1  LIG1       -0.0493
      3 H          -0.1591    5.3568    0.3789 H       1  LIG1        0.0625
      4 C           1.1476    4.0968   -0.5721 C.ar    1  LIG1       -0.0610
      5 H           0.5973    3.9238   -1.3269 H       1  LIG1        0.0618
      6 C           2.4037    3.5050   -0.4838 C.ar    1  LIG1       -0.0614
      7 H           2.7001    2.9405   -1.1880 H       1  LIG1        0.0618
      8 C           3.2364    3.7193    0.6099 C.ar    1  LIG1       -0.0563
      9 H           4.0926    3.3104    0.6623 H       1  LIG1        0.0621
     10 C           2.7761    4.5500    1.6212 C.ar    1  LIG1       -0.0180
     11 C           3.4227    4.9583    2.9161 C.3     1  LIG1        0.0410
     12 H           3.5728    4.1684    3.4831 H       1  LIG1        0.0514
     13 H           4.2787    5.4353    2.8051 H       1  LIG1        0.0514
     14 N           2.4195    5.8544    3.4939 N.am    1  LIG1       -0.2907
     15 C           1.2896    5.9568    2.7428 C.2     1  LIG1        0.2474
     16 O           0.2829    6.5969    3.0435 O.2     1  LIG1       -0.2700
     17 C           2.4985    6.4012    4.8526 C.3     1  LIG1        0.0210
     18 H           1.9527    7.2091    4.8288 H       1  LIG1        0.0495
     19 C           1.8743    5.4327    5.8453 C.3     1  LIG1       -0.0467
     20 H           1.9569    5.7957    6.7518 H       1  LIG1        0.0247
     21 H           0.9268    5.3080    5.6284 H       1  LIG1        0.0247
     22 H           2.3372    4.5703    5.7954 H       1  LIG1        0.0247
     23 C           3.9259    6.7678    5.2098 C.3     1  LIG1       -0.0467
     24 H           3.9430    7.1920    6.0931 H       1  LIG1        0.0247
     25 H           4.4771    5.9576    5.2259 H       1  LIG1        0.0247
     26 H           4.2804    7.3907    4.5414 H       1  LIG1        0.0247
@<TRIPOS>BOND
     1     5     4    1
     2     7     6    1
     3     4     6   ar
     4     4     2   ar
     5     6     8   ar
     6     3     2    1
     7     2     1   ar
     8     8     9    1
     9     8    10   ar
    10     1    10   ar
    11     1    15    1
    12    10    11    1
    13    15    16    2
    14    15    14   am
    15    13    11    1
    16    11    12    1
    17    11    14    1
    18    14    17    1
    19    26    23    1
    20    18    17    1
    21    17    23    1
    22    17    19    1
    23    23    25    1
    24    23    24    1
    25    21    19    1
    26    22    19    1
    27    19    20    1
