@<TRIPOS>MOLECULE
3-(2,6-Difluorophenyl)prop-2-enoic acid
 19 19 0 0 0
SMALL
GASTEIGER

@<TRIPOS>ATOM
      1 C           2.2320   13.2825    3.4529 C.ar    1  LIG1        0.1333
      2 C           2.0041   11.9662    3.1484 C.ar    1  LIG1       -0.0257
      3 C           2.3515   11.0076    4.0694 C.ar    1  LIG1       -0.0563
      4 C           2.9267   11.3638    5.2594 C.ar    1  LIG1       -0.0257
      5 C           3.1546   12.6943    5.5038 C.ar    1  LIG1        0.1333
      6 C           2.8195   13.7268    4.6358 C.ar    1  LIG1        0.0456
      7 C           3.1049   15.1199    4.9812 C.2     1  LIG1       -0.0423
      8 C           2.8261   16.2194    4.3043 C.2     1  LIG1        0.0231
      9 C           3.2048   17.5374    4.8190 C.2     1  LIG1        0.3296
     10 F           1.8527   14.2109    2.5446 F       1  LIG1       -0.2048
     11 F           3.7570   13.0258    6.6711 F       1  LIG1       -0.2048
     12 O           2.8742   18.5313    4.0264 O.3     1  LIG1       -0.4775
     13 O           3.7827   17.7110    5.8785 O.2     1  LIG1       -0.2458
     14 H           1.6145   11.7874    2.3547 H       1  LIG1        0.0646
     15 H           2.1974   10.0936    3.8543 H       1  LIG1        0.0619
     16 H           3.1549   10.7727    5.9170 H       1  LIG1        0.0646
     17 H           3.1308   19.3306    4.4350 H       1  LIG1        0.2954
     18 H           3.5479   15.2117    5.8028 H       1  LIG1        0.0627
     19 H           2.3525   16.1976    3.4623 H       1  LIG1        0.0689
@<TRIPOS>BOND
     1    14     2    1
     2    10     1    1
     3     2     1   ar
     4     2     3   ar
     5     1     6   ar
     6    19     8    1
     7    15     3    1
     8    12    17    1
     9    12     9    1
    10     3     4   ar
    11     8     9    1
    12     8     7    2
    13     6     7    1
    14     6     5   ar
    15     9    13    2
    16     7    18    1
    17     4     5   ar
    18     4    16    1
    19     5    11    1
