@<TRIPOS>MOLECULE
{[3,4-Dimethoxybicyclo[4.2.0]octa-1(6),2,4-trien-7-yl]methyl}[3-(7,8-dimethoxy-2-oxo-2,3,4,5-tetrahydro-1<i>H</i>-3-benzazepin-3-yl)propyl]methylazanium hemihydrate
 147 150 0 0 0
SMALL
GASTEIGER

@<TRIPOS>ATOM
      1 CL         -1.3694   30.9180    7.0268 Cl      1  LIG1        0.0000
      2 CL         -2.0341   33.8397    1.2689 Cl      2  LIG2        0.0000
      3 O           2.9552   23.7170    9.5422 O.3     3  LIG3       -0.4914
      4 O           4.4602   25.1661    8.0864 O.3     3  LIG3       -0.4914
      5 O           1.4995   35.6748    6.5010 O.2     3  LIG3       -0.2752
      6 O           2.9031   42.1515    6.2792 O.3     3  LIG3       -0.4914
      7 O           4.5845   42.1015    8.2650 O.3     3  LIG3       -0.4914
      8 O           0.1501   42.1937    2.7933 O.3     4  LIG4       -0.4914
      9 O           1.7160   40.8268    1.3148 O.3     4  LIG4       -0.4914
     10 O           0.2401   29.6972    1.5741 O.2     4  LIG4       -0.2752
     11 O           1.9066   23.2726    1.7469 O.3     4  LIG4       -0.4914
     12 O           3.6297   23.4479    3.6713 O.3     4  LIG4       -0.4914
     13 O           0.7410   35.2740    0.2593 O.3     5  HOH5       -0.4105
     14 H           1.4724   35.3620    0.6186 H       0  HOH0        0.2052
     15 H          -0.0084   35.1011    0.5472 H       0  HOH0        0.2052
     16 N           0.6314   31.1071    9.3273 N.4     3  LIG3        0.2335
     17 H           0.0286   31.2954    8.5777 H       3  LIG3        0.2031
     18 N          -0.4280   34.3940    3.8533 N.4     4  LIG4        0.2335
     19 H          -0.9633   34.1643    3.0650 H       4  LIG4        0.2031
     20 N           1.8159   35.9022    8.7154 N.am    3  LIG3       -0.3007
     21 N           0.9193   29.6333    3.7225 N.am    4  LIG4       -0.3007
     22 C           1.9162   29.0846   10.2496 C.3     3  LIG3        0.0286
     23 H           2.5307   29.6913   10.7127 H       3  LIG3        0.0404
     24 C           1.0628   28.1886   11.2323 C.3     3  LIG3       -0.0156
     25 H           1.2441   28.3436   12.1726 H       3  LIG3        0.0321
     26 H           0.1101   28.1916   11.0497 H       3  LIG3        0.0321
     27 C           1.8127   27.0025   10.6352 C.ar    3  LIG3       -0.0393
     28 C           1.8881   25.6204   10.6227 C.ar    3  LIG3       -0.0128
     29 H           1.3672   25.0933   11.1847 H       3  LIG3        0.0658
     30 C           2.7897   25.0648    9.7174 C.ar    3  LIG3        0.1618
     31 C           3.5947   25.8695    8.8928 C.ar    3  LIG3        0.1618
     32 C           3.4908   27.2516    8.9099 C.ar    3  LIG3       -0.0124
     33 H           4.0049   27.7911    8.3536 H       3  LIG3        0.0658
     34 C           2.5736   27.7833    9.8050 C.ar    3  LIG3       -0.0321
     35 C           1.9662   22.8592   10.0961 C.3     3  LIG3        0.0790
     36 H           1.9811   22.9295   11.0535 H       3  LIG3        0.0660
     37 H           2.1483   21.9523    9.8392 H       3  LIG3        0.0660
     38 H           1.1004   23.1162    9.7702 H       3  LIG3        0.0660
     39 C           5.4751   25.8886    7.4370 C.3     3  LIG3        0.0790
     40 H           5.0827   26.4859    6.7960 H       3  LIG3        0.0660
     41 H           6.0643   25.2785    6.9867 H       3  LIG3        0.0660
     42 H           5.9721   26.3946    8.0838 H       3  LIG3        0.0660
     43 C           1.1968   29.7359    9.0805 C.3     3  LIG3       -0.0249
     44 H           1.8171   29.7927    8.3364 H       3  LIG3        0.0820
     45 H           0.4711   29.1528    8.8079 H       3  LIG3        0.0820
     46 C          -0.1955   31.1915   10.5613 C.3     3  LIG3       -0.0431
     47 H          -0.8390   30.4791   10.5641 H       3  LIG3        0.0777
     48 H          -0.6527   32.0355   10.5824 H       3  LIG3        0.0777
     49 H           0.3710   31.1147   11.3318 H       3  LIG3        0.0777
     50 C           1.6849   32.1701    9.2966 C.3     3  LIG3       -0.0307
     51 H           2.3353   31.9501    8.6110 H       3  LIG3        0.0815
     52 H           2.1468   32.1813   10.1494 H       3  LIG3        0.0815
     53 C           1.1326   33.5410    9.0225 C.3     3  LIG3        0.0033
     54 H           0.5773   33.8258    9.7654 H       3  LIG3        0.0332
     55 H           0.5830   33.5201    8.2235 H       3  LIG3        0.0332
     56 C           2.2798   34.5188    8.8325 C.3     3  LIG3        0.0195
     57 H           2.8851   34.4491    9.5877 H       3  LIG3        0.0466
     58 H           2.7730   34.2791    8.0328 H       3  LIG3        0.0466
     59 C           1.4557   36.3678    7.5200 C.2     3  LIG3        0.2199
     60 C           0.9618   37.7991    7.4632 C.3     3  LIG3        0.0497
     61 H           0.2221   37.8877    8.0840 H       3  LIG3        0.0407
     62 H           0.6126   37.9625    6.5729 H       3  LIG3        0.0407
     63 C           1.9767   38.8851    7.7794 C.ar    3  LIG3       -0.0317
     64 C           1.9989   39.9890    6.9070 C.ar    3  LIG3       -0.0124
     65 H           1.4185   40.0026    6.1804 H       3  LIG3        0.0658
     66 C           2.8534   41.0468    7.0981 C.ar    3  LIG3        0.1618
     67 C           3.7608   41.0198    8.1615 C.ar    3  LIG3        0.1618
     68 C           3.7339   39.9481    9.0247 C.ar    3  LIG3       -0.0128
     69 H           4.3229   39.9388    9.7446 H       3  LIG3        0.0658
     70 C           2.8486   38.8656    8.8610 C.ar    3  LIG3       -0.0386
     71 C           2.9353   37.7586    9.8925 C.3     3  LIG3       -0.0114
     72 H           3.7687   37.2824    9.7534 H       3  LIG3        0.0328
     73 H           2.9814   38.1689   10.7705 H       3  LIG3        0.0328
     74 C           1.8125   36.7435    9.9084 C.3     3  LIG3        0.0187
     75 H           1.9014   36.1822   10.6948 H       3  LIG3        0.0468
     76 H           0.9633   37.2083    9.9687 H       3  LIG3        0.0468
     77 C           1.7701   42.5589    5.6719 C.3     3  LIG3        0.0790
     78 H           1.6103   42.0168    4.8955 H       3  LIG3        0.0660
     79 H           1.8615   43.4774    5.4068 H       3  LIG3        0.0660
     80 H           1.0322   42.4731    6.2794 H       3  LIG3        0.0660
     81 C           5.5436   42.1007    9.3045 C.3     3  LIG3        0.0790
     82 H           5.0967   42.0628   10.1527 H       3  LIG3        0.0660
     83 H           6.0695   42.9023    9.2546 H       3  LIG3        0.0660
     84 H           6.1166   41.3360    9.2097 H       3  LIG3        0.0660
     85 C          -0.8680   36.7948    3.1936 C.3     4  LIG4        0.0286
     86 H          -1.4485   36.4537    2.4819 H       4  LIG4        0.0404
     87 C          -1.6868   37.6256    4.2639 C.3     4  LIG4       -0.0156
     88 H          -2.6468   37.6190    4.1256 H       4  LIG4        0.0321
     89 H          -1.4602   37.4229    5.1855 H       4  LIG4        0.0321
     90 C          -0.9819   38.8486    3.7020 C.ar    4  LIG4       -0.0393
     91 C          -0.9089   40.2277    3.7668 C.ar    4  LIG4       -0.0128
     92 H          -1.4313   40.7193    4.3585 H       4  LIG4        0.0658
     93 C          -0.0141   40.8368    2.9013 C.ar    4  LIG4        0.1618
     94 C           0.8248   40.0720    2.0552 C.ar    4  LIG4        0.1618
     95 C           0.7078   38.7060    1.9755 C.ar    4  LIG4       -0.0124
     96 H           1.2288   38.1990    1.3959 H       4  LIG4        0.0658
     97 C          -0.2319   38.1295    2.8092 C.ar    4  LIG4       -0.0321
     98 C          -0.8532   43.0167    3.3699 C.3     4  LIG4        0.0790
     99 H          -1.7172   42.7287    3.0669 H       4  LIG4        0.0660
    100 H          -0.7093   43.9288    3.1067 H       4  LIG4        0.0660
    101 H          -0.8108   42.9497    4.3268 H       4  LIG4        0.0660
    102 C           2.7382   40.1338    0.6483 C.3     4  LIG4        0.0790
    103 H           3.2041   39.5725    1.2725 H       4  LIG4        0.0660
    104 H           3.3527   40.7628    0.2632 H       4  LIG4        0.0660
    105 H           2.3571   39.5921   -0.0465 H       4  LIG4        0.0660
    106 C           0.1449   35.7618    3.6270 C.3     4  LIG4       -0.0249
    107 H           0.8363   35.7013    2.9496 H       4  LIG4        0.0820
    108 H           0.5642   36.0629    4.4484 H       4  LIG4        0.0820
    109 C          -1.3266   34.3475    5.0327 C.3     4  LIG4       -0.0431
    110 H          -1.6387   33.4487    5.1624 H       4  LIG4        0.0777
    111 H          -2.0768   34.9286    4.8874 H       4  LIG4        0.0777
    112 H          -0.8462   34.6346    5.8130 H       4  LIG4        0.0777
    113 C           0.6770   33.3866    3.9579 C.3     4  LIG4       -0.0307
    114 H           1.1280   33.4974    4.8100 H       4  LIG4        0.0815
    115 H           1.3248   33.5509    3.2553 H       4  LIG4        0.0815
    116 C           0.1755   31.9719    3.8465 C.3     4  LIG4        0.0033
    117 H          -0.4179   31.8946    3.0830 H       4  LIG4        0.0332
    118 H          -0.3238   31.7375    4.6438 H       4  LIG4        0.0332
    119 C           1.3602   31.0158    3.6781 C.3     4  LIG4        0.0195
    120 H           1.7976   31.1888    2.8302 H       4  LIG4        0.0466
    121 H           2.0047   31.1724    4.3864 H       4  LIG4        0.0466
    122 C           0.3723   29.0759    2.6250 C.2     4  LIG4        0.2199
    123 C          -0.0854   27.6438    2.7285 C.3     4  LIG4        0.0497
    124 H          -0.4800   27.3921    1.8793 H       4  LIG4        0.0407
    125 H          -0.7870   27.6003    3.3969 H       4  LIG4        0.0407
    126 C           0.9663   26.6103    3.0833 C.ar    4  LIG4       -0.0317
    127 C           0.9771   25.4560    2.2792 C.ar    4  LIG4       -0.0124
    128 H           0.3669   25.3905    1.5803 H       4  LIG4        0.0658
    129 C           1.8557   24.4239    2.4896 C.ar    4  LIG4        0.1618
    130 C           2.7869   24.5226    3.5291 C.ar    4  LIG4        0.1618
    131 C           2.7816   25.6391    4.3253 C.ar    4  LIG4       -0.0128
    132 H           3.3938   25.6936    5.0233 H       4  LIG4        0.0658
    133 C           1.8838   26.7060    4.1262 C.ar    4  LIG4       -0.0386
    134 C           2.0206   27.8755    5.0680 C.3     4  LIG4       -0.0114
    135 H           2.8726   28.3050    4.8936 H       4  LIG4        0.0328
    136 H           2.0508   27.5310    5.9741 H       4  LIG4        0.0328
    137 C           0.9366   28.9329    5.0009 C.3     4  LIG4        0.0187
    138 H           0.0743   28.5127    5.1445 H       4  LIG4        0.0468
    139 H           1.0764   29.5759    5.7135 H       4  LIG4        0.0468
    140 C           0.7704   22.9374    0.9895 C.3     4  LIG4        0.0790
    141 H          -0.0107   22.9870    1.5461 H       4  LIG4        0.0660
    142 H           0.8642   22.0446    0.6495 H       4  LIG4        0.0660
    143 H           0.6809   23.5513    0.2574 H       4  LIG4        0.0660
    144 C           4.5671   23.4874    4.7211 C.3     4  LIG4        0.0790
    145 H           5.1639   24.2276    4.5895 H       4  LIG4        0.0660
    146 H           5.0690   22.6694    4.7327 H       4  LIG4        0.0660
    147 H           4.1067   23.5923    5.5571 H       4  LIG4        0.0660
@<TRIPOS>BOND
     1   105   102    1
     2   143   140    1
     3    13    15    1
     4    13    14    1
     5   104   102    1
     6   102   103    1
     7   102     9    1
     8   142   140    1
     9   140   141    1
    10   140    11    1
    11     9    94    1
    12    96    95    1
    13    10   122    2
    14   128   127    1
    15    11   129    1
    16   124   123    1
    17    95    94   ar
    18    95    97   ar
    19    94    93   ar
    20   127   129   ar
    21   127   126   ar
    22    86    85    1
    23   129   130   ar
    24   122   123    1
    25   122    21   am
    26   123   126    1
    27   123   125    1
    28     8    93    1
    29     8    98    1
    30    97    85    1
    31    97    90   ar
    32   120   119    1
    33    93    91   ar
    34   107   106    1
    35    19    18    1
    36    99    98    1
    37   117   116    1
    38   126   133   ar
    39   100    98    1
    40    85   106    1
    41    85    87    1
    42   115   113    1
    43    98   101    1
    44   130    12    1
    45   130   131   ar
    46   106    18    1
    47   106   108    1
    48    12   144    1
    49   119    21    1
    50   119   116    1
    51   119   121    1
    52    90    91   ar
    53    90    87    1
    54    21   137    1
    55    91    92    1
    56   116   113    1
    57   116   118    1
    58    18   113    1
    59    18   109    1
    60   113   114    1
    61    88    87    1
    62   133   131   ar
    63   133   134    1
    64    87    89    1
    65   131   132    1
    66   145   144    1
    67   144   146    1
    68   144   147    1
    69   111   109    1
    70   135   134    1
    71    78    77    1
    72   137   134    1
    73   137   138    1
    74   137   139    1
    75   109   110    1
    76   109   112    1
    77   134   136    1
    78    79    77    1
    79    77     6    1
    80    77    80    1
    81    65    64    1
    82     6    66    1
    83     5    59    2
    84    62    60    1
    85    40    39    1
    86    64    66   ar
    87    64    63   ar
    88    41    39    1
    89    66    67   ar
    90    39    42    1
    91    39     4    1
    92    60    59    1
    93    60    63    1
    94    60    61    1
    95    59    20   am
    96    63    70   ar
    97    58    56    1
    98     4    31    1
    99    67     7    1
   100    67    68   ar
   101    55    53    1
   102     7    81    1
   103    44    43    1
   104    33    32    1
   105    17    16    1
   106    51    50    1
   107    20    56    1
   108    20    74    1
   109    45    43    1
   110    56    53    1
   111    56    57    1
   112    70    68   ar
   113    70    71    1
   114    31    32   ar
   115    31    30   ar
   116    32    34   ar
   117    53    50    1
   118    53    54    1
   119    68    69    1
   120    43    16    1
   121    43    22    1
   122    84    81    1
   123    83    81    1
   124    50    16    1
   125    50    52    1
   126    81    82    1
   127    16    46    1
   128     3    30    1
   129     3    35    1
   130    30    28   ar
   131    72    71    1
   132    38    35    1
   133    34    22    1
   134    34    27   ar
   135    37    35    1
   136    71    74    1
   137    71    73    1
   138    74    76    1
   139    74    75    1
   140    35    36    1
   141    22    23    1
   142    22    24    1
   143    46    47    1
   144    46    48    1
   145    46    49    1
   146    28    27   ar
   147    28    29    1
   148    27    24    1
   149    26    24    1
   150    24    25    1
