@<TRIPOS>MOLECULE
(3a<i>R</i>,4<i>S</i>,7<i>R</i>,7a<i>S</i>)-2-(4-Nitrophenyl)-3a,4,7,7a-tetrahydro-4,7-epoxy-1<i>H</i>-isoindole-1,3(2<i>H</i>)-dione
 31 34 0 0 0
SMALL
GASTEIGER

@<TRIPOS>ATOM
      1 C           1.5961    7.2014    0.4715 C.3     1  LIG1        0.0896
      2 C           3.0774    7.6251    0.2374 C.3     1  LIG1        0.0799
      3 C           2.9390    8.5036   -1.0203 C.3     1  LIG1        0.0799
      4 C           1.4455    8.3581   -1.3315 C.3     1  LIG1        0.0896
      5 C           1.1877    6.9252   -1.7240 C.2     1  LIG1       -0.0564
      6 H           1.0023    6.6071   -2.5783 H       1  LIG1        0.0595
      7 C           1.2765    6.2198   -0.6325 C.2     1  LIG1       -0.0564
      8 H           1.1659    5.2995   -0.5496 H       1  LIG1        0.0595
      9 C           3.5828    8.5478    1.3045 C.2     1  LIG1        0.2329
     10 C           3.2932    9.8831   -0.5672 C.2     1  LIG1        0.2329
     11 C           4.2641   10.9219    1.4997 C.ar    1  LIG1        0.0440
     12 C           3.7265   11.2258    2.7429 C.ar    1  LIG1       -0.0377
     13 C           4.3538   12.1817    3.5172 C.ar    1  LIG1       -0.0297
     14 C           5.4485   12.8097    3.0357 C.ar    1  LIG1        0.1263
     15 C           5.9790   12.5408    1.7906 C.ar    1  LIG1       -0.0297
     16 C           5.3698   11.5702    1.0189 C.ar    1  LIG1       -0.0377
     17 N           3.6909    9.8315    0.7749 N.am    1  LIG1       -0.2098
     18 N           6.1491   13.7859    3.9056 N.pl3   1  LIG1        0.0564
     19 O           0.9084    8.3820    0.0152 O.3     1  LIG1       -0.3638
     20 O           3.8439    8.2642    2.4428 O.2     1  LIG1       -0.2744
     21 O           3.2449   10.9090   -1.2003 O.2     1  LIG1       -0.2744
     22 O           5.6934   13.9516    5.0452 O.2     1  LIG1       -0.1261
     23 O           7.1244   14.3237    3.4980 O.2     1  LIG1       -0.1261
     24 H           1.2987    7.0357    1.3718 H       1  LIG1        0.0648
     25 H           3.5797    6.8883    0.1979 H       1  LIG1        0.0432
     26 H           3.4836    8.2881   -1.7543 H       1  LIG1        0.0432
     27 H           1.1213    9.1353   -1.8730 H       1  LIG1        0.0648
     28 H           2.9609   10.7745    3.0469 H       1  LIG1        0.0637
     29 H           3.9256   12.3401    4.2472 H       1  LIG1        0.0641
     30 H           6.7264   12.9110    1.4905 H       1  LIG1        0.0641
     31 H           5.8217   11.4192    0.1913 H       1  LIG1        0.0637
@<TRIPOS>BOND
     1     6     5    1
     2    27     4    1
     3    26     3    1
     4     5     4    1
     5     5     7    2
     6     4     3    1
     7     4    19    1
     8    21    10    2
     9     3    10    1
    10     3     2    1
    11     7     8    1
    12     7     1    1
    13    10    17   am
    14    19     1    1
    15    31    16    1
    16    25     2    1
    17     2     1    1
    18     2     9    1
    19     1    24    1
    20    17     9   am
    21    17    11    1
    22    16    11   ar
    23    16    15   ar
    24     9    20    2
    25    30    15    1
    26    11    12   ar
    27    15    14   ar
    28    12    28    1
    29    12    13   ar
    30    14    13   ar
    31    14    18    1
    32    23    18    2
    33    13    29    1
    34    18    22    2
