@<TRIPOS>MOLECULE
C16 H31 N7 O5, 2(H2 O)
 65 63 0 0 0
SMALL
GASTEIGER

@<TRIPOS>ATOM
      1 O           3.0116   -0.1645    6.1771 O.co2   1  LIG1       -0.2403
      2 O           2.0683   -2.1726    6.3426 O.co2   1  LIG1       -0.2403
      3 O           0.6396    1.5725   10.3165 O.2     1  LIG1       -0.2746
      4 O           5.0283    5.3066    6.4197 O.2     1  LIG1       -0.2746
      5 O           6.6432    0.0851    2.5601 O.2     1  LIG1       -0.2746
      6 N           1.1933    0.6149    4.3594 N.4     1  LIG1        0.2451
      7 H           1.7934    1.0713    4.7400 H       1  LIG1        0.2040
      8 N           0.6674    2.3945    6.8081 N.3     1  LIG1       -0.2878
      9 N           3.1410    3.3602    5.4801 N.3     1  LIG1       -0.2916
     10 N           3.4584    1.7789    2.9476 N.3     1  LIG1       -0.2878
     11 N           2.1161    1.0049    8.7220 N.am    1  LIG1       -0.3283
     12 H           2.7206    0.8600    9.2654 H       1  LIG1        0.1450
     13 H           2.2616    0.9053    7.9082 H       1  LIG1        0.1450
     14 N           5.6370    3.9984    8.0829 N.am    1  LIG1       -0.3283
     15 H           6.0831    4.6472    8.3656 H       1  LIG1        0.1450
     16 H           5.4489    3.3044    8.5153 H       1  LIG1        0.1450
     17 N           5.2379    0.1464    4.3044 N.am    1  LIG1       -0.3283
     18 H           5.6736   -0.4074    4.7566 H       1  LIG1        0.1450
     19 H           4.4969    0.4828    4.6402 H       1  LIG1        0.1450
     20 C          -0.0747    0.8766    5.0643 C.3     1  LIG1       -0.0182
     21 H          -0.8054    0.7499    4.4389 H       1  LIG1        0.0827
     22 H          -0.1765    0.2188    5.7694 H       1  LIG1        0.0827
     23 C          -0.1958    2.2059    5.6530 C.3     1  LIG1        0.0396
     24 H           0.0261    2.8698    4.9811 H       1  LIG1        0.0479
     25 H          -1.1167    2.3508    5.9208 H       1  LIG1        0.0479
     26 C           1.1747    3.7615    6.9287 C.3     1  LIG1        0.0124
     27 H           1.6429    3.8279    7.7752 H       1  LIG1        0.0439
     28 H           0.4107    4.3575    6.9769 H       1  LIG1        0.0439
     29 C           2.0814    4.2715    5.8676 C.3     1  LIG1        0.0122
     30 H           1.5507    4.4797    5.0826 H       1  LIG1        0.0439
     31 H           2.4834    5.0984    6.1769 H       1  LIG1        0.0439
     32 C           3.7583    3.8309    4.1944 C.3     1  LIG1        0.0122
     33 H           3.6404    4.7921    4.1279 H       1  LIG1        0.0439
     34 H           4.7109    3.6544    4.2244 H       1  LIG1        0.0439
     35 C           3.2113    3.2168    3.0036 C.3     1  LIG1        0.0124
     36 H           3.6029    3.6363    2.2220 H       1  LIG1        0.0439
     37 H           2.2539    3.3738    2.9770 H       1  LIG1        0.0439
     38 C           2.3945    1.0999    2.1887 C.3     1  LIG1        0.0396
     39 H           2.6958    0.2067    1.9592 H       1  LIG1        0.0479
     40 H           2.2464    1.5813    1.3588 H       1  LIG1        0.0479
     41 C           1.1065    0.9958    2.9172 C.3     1  LIG1       -0.0182
     42 H           0.5522    0.3425    2.4631 H       1  LIG1        0.0827
     43 H           0.6540    1.8513    2.8556 H       1  LIG1        0.0827
     44 C           1.6060   -0.8193    4.4489 C.3     1  LIG1        0.0716
     45 H           2.2420   -1.0245    3.7454 H       1  LIG1        0.0934
     46 H           0.8320   -1.3927    4.3375 H       1  LIG1        0.0934
     47 C           2.2464   -1.0728    5.8177 C.2     1  LIG1        0.3997
     48 C           0.0478    1.9977    8.0513 C.3     1  LIG1        0.0757
     49 H          -0.5904    1.2916    7.8617 H       1  LIG1        0.0522
     50 H          -0.4498    2.7536    8.3989 H       1  LIG1        0.0522
     51 C           0.9868    1.5134    9.1255 C.2     1  LIG1        0.2246
     52 C           4.1351    3.0675    6.4763 C.3     1  LIG1        0.0756
     53 H           4.7369    2.4006    6.1121 H       1  LIG1        0.0522
     54 H           3.6870    2.6631    7.2363 H       1  LIG1        0.0522
     55 C           4.9729    4.2248    6.9885 C.2     1  LIG1        0.2246
     56 C           4.7142    1.4228    2.3267 C.3     1  LIG1        0.0757
     57 H           5.2137    2.2391    2.1687 H       1  LIG1        0.0522
     58 H           4.5217    1.0305    1.4602 H       1  LIG1        0.0522
     59 C           5.5944    0.4783    3.0801 C.2     1  LIG1        0.2246
     60 O           7.0907    6.5906    8.5669 O.3     2  HOH2       -0.4105
     61 H           6.4238    7.2726    8.5153 H       0  HOH0        0.2052
     62 H           6.9326    6.2164    9.4300 H       0  HOH0        0.2052
     63 O          -0.4871    4.0407    2.7758 O.3     3  HOH3       -0.4105
     64 H          -1.4021    4.3304    2.6943 H       0  HOH0        0.2052
     65 H           0.0363    4.7378    2.3783 H       0  HOH0        0.2052
@<TRIPOS>BOND
     1    40    38    1
     2    58    56    1
     3    39    38    1
     4    57    56    1
     5    38    41    1
     6    38    10    1
     7    36    35    1
     8    56    10    1
     9    56    59    1
    10    65    63    1
    11    42    41    1
    12     5    59    2
    13    64    63    1
    14    43    41    1
    15    41     6    1
    16    10    35    1
    17    37    35    1
    18    35    32    1
    19    59    17   am
    20    45    44    1
    21    33    32    1
    22    32    34    1
    23    32     9    1
    24    17    19    1
    25    17    18    1
    26    46    44    1
    27     6    44    1
    28     6     7    1
    29     6    20    1
    30    21    20    1
    31    44    47    1
    32    24    23    1
    33    20    23    1
    34    20    22    1
    35    30    29    1
    36     9    29    1
    37     9    52    1
    38    23    25    1
    39    23     8    1
    40    47     1   ar
    41    47     2   ar
    42    29    31    1
    43    29    26    1
    44    53    52    1
    45     4    55    2
    46    52    55    1
    47    52    54    1
    48     8    26    1
    49     8    48    1
    50    26    28    1
    51    26    27    1
    52    55    14   am
    53    49    48    1
    54    13    11    1
    55    48    50    1
    56    48    51    1
    57    14    15    1
    58    14    16    1
    59    61    60    1
    60    60    62    1
    61    11    51   am
    62    11    12    1
    63    51     3    2
