@<TRIPOS>MOLECULE
5-(1-Aminopropylidene)-1,3-diethyl-2-thioxodihydropyrimidine-4,6(1<i>H</i>,5<i>H</i>)-dione
 34 34 0 0 0
SMALL
GASTEIGER

@<TRIPOS>ATOM
      1 C           3.1958    8.5405   21.1377 C.3     1  LIG1       -0.0488
      2 H           3.0495    9.3407   21.6850 H       1  LIG1        0.0245
      3 H           4.1224    8.2396   21.2405 H       1  LIG1        0.0245
      4 H           3.0238    8.7535   20.1965 H       1  LIG1        0.0245
      5 C           2.2515    7.4387   21.5888 C.3     1  LIG1        0.0189
      6 H           2.4162    7.2390   22.5442 H       1  LIG1        0.0466
      7 H           1.3170    7.7531   21.4997 H       1  LIG1        0.0466
      8 C           3.3298    5.2626   21.2146 C.2     1  LIG1        0.1486
      9 C           4.4072    3.0589   20.8297 C.3     1  LIG1        0.0189
     10 H           5.1783    3.4679   21.2971 H       1  LIG1        0.0466
     11 H           4.7467    2.6111   20.0150 H       1  LIG1        0.0466
     12 C           3.7606    2.0282   21.7366 C.3     1  LIG1       -0.0488
     13 H           4.4192    1.3423   21.9733 H       1  LIG1        0.0245
     14 H           3.4380    2.4664   22.5517 H       1  LIG1        0.0245
     15 H           3.0066    1.6101   21.2705 H       1  LIG1        0.0245
     16 C          -0.8868    5.1552   16.0099 C.3     1  LIG1       -0.0601
     17 H          -1.4753    5.8821   15.7182 H       1  LIG1        0.0233
     18 H          -0.2813    4.9114   15.2788 H       1  LIG1        0.0233
     19 H          -1.4277    4.3767   16.2591 H       1  LIG1        0.0233
     20 C          -0.0705    5.6136   17.2147 C.3     1  LIG1       -0.0170
     21 H           0.4460    6.4170   16.9539 H       1  LIG1        0.0323
     22 H          -0.6974    5.8838   17.9317 H       1  LIG1        0.0323
     23 C           0.8794    4.6053   17.7753 C.2     1  LIG1        0.0184
     24 C           1.7294    4.8637   18.8975 C.2     1  LIG1        0.1158
     25 C           2.6490    3.8491   19.3291 C.2     1  LIG1        0.2586
     26 C           1.6386    6.1007   19.6238 C.2     1  LIG1        0.2586
     27 N           2.4291    6.2038   20.7939 N.am    1  LIG1       -0.2492
     28 N           3.4499    4.1235   20.4407 N.am    1  LIG1       -0.2492
     29 O           2.7919    2.7449   18.7755 O.2     1  LIG1       -0.2694
     30 O           0.9310    7.0596   19.3252 O.2     1  LIG1       -0.2694
     31 N           0.9186    3.4302   17.1864 N.pl3   1  LIG1       -0.3605
     32 H           1.4658    2.8078   17.4824 H       1  LIG1        0.1421
     33 H           0.3980    3.2662   16.4961 H       1  LIG1        0.1421
     34 S           4.2518    5.4706   22.5846 S.2     1  LIG1       -0.0177
@<TRIPOS>BOND
     1    18    16    1
     2    17    16    1
     3    16    19    1
     4    16    20    1
     5    33    31    1
     6    21    20    1
     7    31    32    1
     8    31    23    1
     9    20    23    1
    10    20    22    1
    11    23    24    2
    12    29    25    2
    13    24    25    1
    14    24    26    1
    15    30    26    2
    16    25    28   am
    17    26    27   am
    18    11     9    1
    19     4     1    1
    20    28     9    1
    21    28     8    1
    22    27     8    1
    23    27     5    1
    24     9    10    1
    25     9    12    1
    26     1     3    1
    27     1     5    1
    28     1     2    1
    29     8    34    2
    30    15    12    1
    31     7     5    1
    32     5     6    1
    33    12    13    1
    34    12    14    1
