@<TRIPOS>MOLECULE
1,5,9-Trimethyl-14,15,16-trioxa-11-azatetracyclo[10.3.1.0^4,13^.0^8,13^]hexadecan-10-one--<i>cis</i>-butenedioic acid (2/1)
 98 103 0 0 0
SMALL
GASTEIGER

@<TRIPOS>ATOM
      1 C           4.1493    5.2072   15.4200 C.3     1  LIG1        0.1534
      2 N           5.7493    3.5598   14.4654 N.am    1  LIG1       -0.2874
      3 H           6.4506    3.3888   13.9522 H       1  LIG1        0.1512
      4 O           4.8703    5.5509   16.6457 O.3     1  LIG1       -0.2204
      5 C           5.1135    4.8633   14.2871 C.3     1  LIG1        0.1607
      6 H           4.5742    4.8143   13.4457 H       1  LIG1        0.0840
      7 O           6.3008    5.7856   16.3850 O.3     1  LIG1       -0.1990
      8 C           6.4046    6.6307   15.2528 C.3     1  LIG1        0.2020
      9 O           6.1068    5.8472   14.0859 O.3     1  LIG1       -0.3221
     10 C           5.4659    7.8383   15.3524 C.3     1  LIG1        0.0043
     11 H           5.2975    8.0302   16.3090 H       1  LIG1        0.0318
     12 H           5.9211    8.6270   14.9651 H       1  LIG1        0.0318
     13 C           4.1210    7.6523   14.6460 C.3     1  LIG1       -0.0421
     14 H           4.2903    7.6033   13.6719 H       1  LIG1        0.0271
     15 H           3.5748    8.4620   14.8098 H       1  LIG1        0.0271
     16 C           2.2367    6.0719   13.9694 C.3     1  LIG1       -0.0382
     17 H           2.7232    5.8180   13.1316 H       1  LIG1        0.0302
     18 C           1.4017    4.8743   14.4137 C.3     1  LIG1       -0.0498
     19 H           0.8770    5.1222   15.2150 H       1  LIG1        0.0268
     20 H           0.7655    4.6354   13.6955 H       1  LIG1        0.0268
     21 C           2.2690    3.6627   14.7372 C.3     1  LIG1       -0.0464
     22 H           2.7388    3.3658   13.9184 H       1  LIG1        0.0269
     23 H           1.6944    2.9190   15.0462 H       1  LIG1        0.0269
     24 C           4.2002    2.8200   16.2168 C.3     1  LIG1        0.0385
     25 H           4.6574    3.0919   17.0654 H       1  LIG1        0.0395
     26 C           5.2975    2.5451   15.2201 C.2     1  LIG1        0.2181
     27 O           5.8108    1.4143   15.1671 O.2     1  LIG1       -0.2754
     28 C           3.2870    6.4277   15.0458 C.3     1  LIG1       -0.0017
     29 H           2.7790    6.6827   15.8701 H       1  LIG1        0.0334
     30 C           3.2977    3.9986   15.8214 C.3     1  LIG1        0.0063
     31 H           2.7848    4.2615   16.6399 H       1  LIG1        0.0338
     32 C           7.8670    6.9856   15.1465 C.3     1  LIG1       -0.0077
     33 H           8.4054    6.1678   15.1779 H       1  LIG1        0.0282
     34 H           8.1156    7.5713   15.8937 H       1  LIG1        0.0282
     35 H           8.0295    7.4504   14.2999 H       1  LIG1        0.0282
     36 C           1.3371    7.2685   13.6513 C.3     1  LIG1       -0.0621
     37 H           0.9534    7.6183   14.4823 H       1  LIG1        0.0233
     38 H           0.6147    6.9846   13.0540 H       1  LIG1        0.0233
     39 H           1.8667    7.9682   13.2161 H       1  LIG1        0.0233
     40 C           3.4289    1.5375   16.5434 C.3     1  LIG1       -0.0538
     41 H           2.7241    1.7374   17.1937 H       1  LIG1        0.0237
     42 H           4.0436    0.8737   16.9202 H       1  LIG1        0.0237
     43 H           3.0256    1.1816   15.7249 H       1  LIG1        0.0237
     44 C           7.0370    6.7126    9.9428 C.3     2  LIG2        0.1534
     45 N           8.7298    5.1880   10.9196 N.am    2  LIG2       -0.2874
     46 H           8.8782    4.4284   11.3049 H       2  LIG2        0.1512
     47 O           6.7635    5.9165    8.7431 O.3     2  LIG2       -0.2204
     48 C           7.4148    5.8020   11.1114 C.3     2  LIG2        0.1607
     49 H           7.4647    6.3708   11.9329 H       2  LIG2        0.0840
     50 O           6.5978    4.4886    9.0675 O.3     2  LIG2       -0.1990
     51 C           5.7370    4.3805   10.1866 C.3     2  LIG2        0.2020
     52 O           6.4795    4.7739   11.3599 O.3     2  LIG2       -0.3221
     53 C           4.4812    5.2412   10.0316 C.3     2  LIG2        0.0043
     54 H           3.7138    4.7583   10.4303 H       2  LIG2        0.0318
     55 H           4.2932    5.3591    9.0662 H       2  LIG2        0.0318
     56 C           4.5840    6.6227   10.6839 C.3     2  LIG2       -0.0421
     57 H           4.6525    6.4967   11.6628 H       2  LIG2        0.0271
     58 H           3.7392    7.1095   10.5080 H       2  LIG2        0.0271
     59 C           5.9906    8.6640   11.2424 C.3     2  LIG2       -0.0382
     60 H           6.1991    8.2591   12.1322 H       2  LIG2        0.0302
     61 C           7.1887    9.5157   10.8163 C.3     2  LIG2       -0.0498
     62 H           6.9714    9.9825    9.9711 H       2  LIG2        0.0268
     63 H           7.3590   10.2044   11.5075 H       2  LIG2        0.0268
     64 C           8.4465    8.6900   10.6181 C.3     2  LIG2       -0.0464
     65 H           8.7000    8.2601   11.4737 H       2  LIG2        0.0269
     66 H           9.1904    9.2797   10.3358 H       2  LIG2        0.0269
     67 C           9.4479    6.7706    9.1837 C.3     2  LIG2        0.0385
     68 H           9.2492    6.3738    8.2862 H       2  LIG2        0.0395
     69 C           9.7024    5.5980   10.1032 C.2     2  LIG2        0.2181
     70 O          10.7945    5.0002   10.0366 O.2     2  LIG2       -0.2754
     71 C           5.7488    7.5114   10.2355 C.3     2  LIG2       -0.0017
     72 H           5.4718    7.9362    9.3735 H       2  LIG2        0.0334
     73 C           8.2135    7.6113    9.5507 C.3     2  LIG2        0.0063
     74 H           7.9395    8.0912    8.7184 H       2  LIG2        0.0338
     75 C           5.4747    2.9010   10.3469 C.3     2  LIG2       -0.0077
     76 H           6.3224    2.4112   10.2919 H       2  LIG2        0.0282
     77 H           4.8747    2.5971    9.6335 H       2  LIG2        0.0282
     78 H           5.0587    2.7360   11.2171 H       2  LIG2        0.0282
     79 C           4.7445    9.5397   11.3991 C.3     2  LIG2       -0.0621
     80 H           4.4861    9.8995   10.5249 H       2  LIG2        0.0233
     81 H           4.9403   10.2784   12.0140 H       2  LIG2        0.0233
     82 H           4.0103    9.0008   11.7607 H       2  LIG2        0.0233
     83 C          10.7253    7.5963    9.0004 C.3     2  LIG2       -0.0538
     84 H          10.5481    8.3421    8.3909 H       2  LIG2        0.0237
     85 H          11.4300    7.0275    8.6239 H       2  LIG2        0.0237
     86 H          11.0160    7.9452    9.8698 H       2  LIG2        0.0237
     87 C           8.8459    1.3365   13.8914 C.2     3  LIG3        0.3298
     88 O           7.9465    0.4401   14.2003 O.3     3  LIG3       -0.4775
     89 H           7.1652    0.8597   14.4418 H       3  LIG3        0.2954
     90 C          10.1683    0.7108   13.5801 C.2     3  LIG3        0.0291
     91 H          10.4678    0.0060   14.1412 H       3  LIG3        0.0691
     92 O           8.6423    2.5263   13.8796 O.2     3  LIG3       -0.2458
     93 C          10.9484    1.0696   12.5782 C.2     3  LIG3        0.0291
     94 H          11.7824    0.6278   12.4664 H       3  LIG3        0.0691
     95 O          11.5631    2.9577   11.3522 O.3     3  LIG3       -0.4775
     96 H          11.2470    3.6487   10.8693 H       3  LIG3        0.2954
     97 C          10.5696    2.1432   11.6098 C.2     3  LIG3        0.3298
     98 O           9.4694    2.2492   11.1344 O.2     3  LIG3       -0.2458
@<TRIPOS>BOND
     1    68    67    1
     2    84    83    1
     3    85    83    1
     4    74    73    1
     5    47    50    1
     6    47    44    1
     7    83    67    1
     8    83    86    1
     9    55    53    1
    10    50    51    1
    11    67    73    1
    12    67    69    1
    13    72    71    1
    14    73    44    1
    15    73    64    1
    16    77    75    1
    17    44    71    1
    18    44    48    1
    19    62    61    1
    20    53    51    1
    21    53    54    1
    22    53    56    1
    23    70    69    2
    24    69    45   am
    25    51    75    1
    26    51    52    1
    27    71    56    1
    28    71    59    1
    29    76    75    1
    30    66    64    1
    31    75    78    1
    32    58    56    1
    33    80    79    1
    34    64    61    1
    35    64    65    1
    36    56    57    1
    37    61    59    1
    38    61    63    1
    39    96    95    1
    40    45    48    1
    41    45    46    1
    42    48    52    1
    43    48    49    1
    44    98    97    2
    45    59    79    1
    46    59    60    1
    47    95    97    1
    48    79    82    1
    49    79    81    1
    50    97    93    1
    51    94    93    1
    52    93    90    2
    53    38    36    1
    54    17    16    1
    55    39    36    1
    56     6     5    1
    57    90    87    1
    58    90    91    1
    59    36    16    1
    60    36    37    1
    61    14    13    1
    62    20    18    1
    63    92    87    2
    64    87    88    1
    65    22    21    1
    66     3     2    1
    67    16    18    1
    68    16    28    1
    69     9     5    1
    70     9     8    1
    71    88    89    1
    72     5     2    1
    73     5     1    1
    74    35    32    1
    75    18    21    1
    76    18    19    1
    77     2    26   am
    78    13    15    1
    79    13    28    1
    80    13    10    1
    81    21    23    1
    82    21    30    1
    83    12    10    1
    84    28     1    1
    85    28    29    1
    86    32    33    1
    87    32     8    1
    88    32    34    1
    89    27    26    2
    90    26    24    1
    91     8    10    1
    92     8     7    1
    93    10    11    1
    94     1    30    1
    95     1     4    1
    96    43    40    1
    97    30    24    1
    98    30    31    1
    99    24    40    1
   100    24    25    1
   101     7     4    1
   102    40    42    1
   103    40    41    1
