@<TRIPOS>MOLECULE
Methyl \a-<i>D</i>-mannopyranosyl-(1-3)-2-<i>O</i>-Acetyl-\b-<i>D</i>-mannopyranoside monohydrate
 56 56 0 0 0
SMALL
GASTEIGER

@<TRIPOS>ATOM
      1 O           4.3592    6.8692   28.7313 O.3     1  LIG1       -0.3511
      2 O           3.5242    4.2776   28.6446 O.3     1  LIG1       -0.4537
      3 O          -0.1907    4.6498   26.7027 O.3     1  LIG1       -0.3864
      4 H          -0.8026    4.3337   27.1604 H       1  LIG1        0.2100
      5 O           2.1090    6.6558   28.7676 O.3     1  LIG1       -0.3396
      6 O          -0.2376    5.7552   30.0373 O.3     1  LIG1       -0.3924
      7 H          -0.7986    5.9896   30.6028 H       1  LIG1        0.2095
      8 O           5.5750    3.5331   28.1075 O.2     1  LIG1       -0.2512
      9 C           3.2688    6.5395   27.9466 C.3     1  LIG1        0.1990
     10 H           3.2044    7.1609   27.1661 H       1  LIG1        0.0949
     11 C           3.4282    5.1024   27.4637 C.3     1  LIG1        0.1819
     12 H           4.2457    5.0066   26.8956 H       1  LIG1        0.0813
     13 C           2.1830    4.7010   26.6906 C.3     1  LIG1        0.1316
     14 H           2.1140    5.2740   25.8740 H       1  LIG1        0.0663
     15 C           0.9383    4.9095   27.5372 C.3     1  LIG1        0.1133
     16 H           0.9425    4.2800   28.3146 H       1  LIG1        0.0647
     17 C           0.9096    6.3630   28.0355 C.3     1  LIG1        0.1131
     18 H           0.8617    6.9714   27.2437 H       1  LIG1        0.0647
     19 C          -0.2722    6.6396   28.9300 C.3     1  LIG1        0.0730
     20 H          -0.2402    7.5768   29.2481 H       1  LIG1        0.0584
     21 H          -1.1133    6.5121   28.4242 H       1  LIG1        0.0584
     22 C           4.5270    8.2866   28.8947 C.3     1  LIG1        0.0396
     23 H           5.1937    8.4586   29.5924 H       1  LIG1        0.0525
     24 H           3.6721    8.6894   29.1537 H       1  LIG1        0.0525
     25 H           4.8304    8.6793   28.0495 H       1  LIG1        0.0525
     26 C           4.6702    3.6367   28.8989 C.2     1  LIG1        0.3044
     27 C           4.6501    3.0786   30.2859 C.3     1  LIG1        0.0332
     28 H           5.3355    2.3821   30.3674 H       1  LIG1        0.0342
     29 H           3.7689    2.6923   30.4703 H       1  LIG1        0.0342
     30 H           4.8347    3.7945   30.9290 H       1  LIG1        0.0342
     31 O           2.2603    3.3334   26.2849 O.3     1  LIG1       -0.3389
     32 O           1.2863    1.5230   23.3497 O.3     1  LIG1       -0.3841
     33 H           0.8852    0.8109   23.2714 H       1  LIG1        0.2101
     34 O           2.4920   -0.5529   24.8117 O.3     1  LIG1       -0.3864
     35 H           2.9624   -1.0289   25.3105 H       1  LIG1        0.2100
     36 O           5.2105    0.4058   24.6751 O.3     1  LIG1       -0.3865
     37 H           5.7359    0.3271   24.0229 H       1  LIG1        0.2100
     38 O           3.2524    3.4871   24.1795 O.3     1  LIG1       -0.3405
     39 O           5.3897    2.9123   22.2796 O.3     1  LIG1       -0.3924
     40 H           4.6265    3.1072   22.0573 H       1  LIG1        0.2095
     41 C           2.0768    3.1447   24.9027 C.3     1  LIG1        0.1885
     42 H           1.3226    3.7231   24.5918 H       1  LIG1        0.0938
     43 C           1.6944    1.6810   24.7098 C.3     1  LIG1        0.1341
     44 H           0.9251    1.4615   25.3104 H       1  LIG1        0.0671
     45 C           2.8731    0.7884   25.0624 C.3     1  LIG1        0.1141
     46 H           3.0743    0.8895   26.0366 H       1  LIG1        0.0648
     47 C           4.1021    1.2040   24.2615 C.3     1  LIG1        0.1119
     48 H           3.9307    1.0603   23.2868 H       1  LIG1        0.0647
     49 C           4.4133    2.6820   24.5148 C.3     1  LIG1        0.1130
     50 H           4.6392    2.8121   25.4804 H       1  LIG1        0.0647
     51 C           5.5479    3.2108   23.6582 C.3     1  LIG1        0.0730
     52 H           5.6045    4.1929   23.7699 H       1  LIG1        0.0584
     53 H           6.4002    2.8209   23.9762 H       1  LIG1        0.0584
     54 O          -0.5520   -0.6821   22.9245 O.3     2  HOH2       -0.4105
     55 H          -0.5350   -0.8858   22.0941 H       0  HOH0        0.2052
     56 H          -0.5547   -1.4105   23.2819 H       0  HOH0        0.2052
@<TRIPOS>BOND
     1    40    39    1
     2    55    54    1
     3    39    51    1
     4    54    56    1
     5    33    32    1
     6    48    47    1
     7    32    43    1
     8    51    52    1
     9    51    53    1
    10    51    49    1
    11    37    36    1
    12    38    49    1
    13    38    41    1
    14    47    49    1
    15    47    36    1
    16    47    45    1
    17    49    50    1
    18    42    41    1
    19    43    41    1
    20    43    45    1
    21    43    44    1
    22    34    45    1
    23    34    35    1
    24    41    31    1
    25    45    46    1
    26    14    13    1
    27    31    13    1
    28    13    11    1
    29    13    15    1
    30     3     4    1
    31     3    15    1
    32    12    11    1
    33    10     9    1
    34    18    17    1
    35    11     9    1
    36    11     2    1
    37    15    17    1
    38    15    16    1
    39     9     1    1
    40     9     5    1
    41    17     5    1
    42    17    19    1
    43    25    22    1
    44     8    26    2
    45    21    19    1
    46     2    26    1
    47     1    22    1
    48    22    24    1
    49    22    23    1
    50    26    27    1
    51    19    20    1
    52    19     6    1
    53     6     7    1
    54    27    28    1
    55    27    29    1
    56    27    30    1
