@<TRIPOS>MOLECULE
2-{[(4,6-Dichloro-1,3,5-triazin-2-yl)amino]methyl}-1<i>H</i>-benzimidazol-3-ium chloride
 29 30 0 0 0
SMALL
GASTEIGER

@<TRIPOS>ATOM
      1 CL          5.8368    6.4522    6.1536 Cl      1  LIG1       -0.0409
      2 CL          3.4483    8.3040    1.9680 Cl      1  LIG1       -0.0409
      3 N           1.4761    3.6273    2.1582 N.pl3   1  LIG1       -0.3178
      4 H           2.2625    3.7902    2.4607 H       1  LIG1        0.1483
      5 N          -0.6794    3.5403    2.0906 N.pl3   1  LIG1       -0.3178
      6 H          -1.4945    3.6757    2.3082 H       1  LIG1        0.1483
      7 N           1.4405    4.8781    4.7974 N.pl3   1  LIG1       -0.3096
      8 H           1.4269    4.3815    5.4970 H       1  LIG1        0.1490
      9 N           3.4832    5.6713    5.4499 N.ar    1  LIG1       -0.1841
     10 N           4.5449    7.3037    4.0795 N.ar    1  LIG1       -0.1870
     11 N           2.3822    6.5178    3.4927 N.ar    1  LIG1       -0.1841
     12 C           0.3582    4.0052    2.7688 C.3     1  LIG1        0.1527
     13 C           1.1537    2.8793    1.0372 C.ar    1  LIG1        0.0500
     14 C           1.9245    2.2762    0.0610 C.ar    1  LIG1       -0.0390
     15 H           2.8529    2.3295    0.0717 H       1  LIG1        0.0637
     16 C           1.2551    1.5957   -0.9213 C.ar    1  LIG1       -0.0599
     17 H           1.7445    1.1778   -1.5932 H       1  LIG1        0.0618
     18 C          -0.1357    1.5097   -0.9457 C.ar    1  LIG1       -0.0599
     19 H          -0.5500    1.0265   -1.6236 H       1  LIG1        0.0618
     20 C          -0.9070    2.1218    0.0071 C.ar    1  LIG1       -0.0390
     21 H          -1.8354    2.0742   -0.0115 H       1  LIG1        0.0637
     22 C          -0.2344    2.8168    1.0006 C.ar    1  LIG1        0.0500
     23 C           0.2429    4.8510    3.9911 C.3     1  LIG1        0.0533
     24 H           0.0265    5.7583    3.7234 H       1  LIG1        0.0501
     25 H          -0.4909    4.5207    4.5319 H       1  LIG1        0.0501
     26 C           2.4496    5.7121    4.5697 C.ar    1  LIG1        0.2205
     27 C           4.4556    6.4688    5.1157 C.ar    1  LIG1        0.2283
     28 C           3.4515    7.2501    3.3332 C.ar    1  LIG1        0.2283
     29 CL          4.5460    3.8716    2.7385 Cl      2  LIG2        0.0000
@<TRIPOS>BOND
     1    19    18    1
     2    17    16    1
     3    18    16   ar
     4    18    20   ar
     5    16    14   ar
     6    21    20    1
     7    20    22   ar
     8    14    15    1
     9    14    13   ar
    10    22    13   ar
    11    22     5    1
    12    13     3    1
    13     2    28    1
    14     5     6    1
    15     5    12    1
    16     3     4    1
    17     3    12    1
    18    12    23    1
    19    28    11   ar
    20    28    10   ar
    21    11    26   ar
    22    24    23    1
    23    23    25    1
    24    23     7    1
    25    10    27   ar
    26    26     7    1
    27    26     9   ar
    28     7     8    1
    29    27     9   ar
    30    27     1    1
