@<TRIPOS>MOLECULE
4-[4-(4-Chlorobenzylidene)-5-oxo-4,5-dihydro-1<i>H</i>-imidazol-2-yl]-1-methylpiperazin-1-ium 3-{5-[4-(diethylamino)benzylidene]-4-oxo-2-sulfanylidene-1,3-thiazolidin-3-yl}propionate
 82 85 0 0 0
SMALL
GASTEIGER

@<TRIPOS>ATOM
      1 S           6.3331    6.6598    6.6047 S.2     1  LIG1       -0.0272
      2 S           5.3950    5.7456    9.2729 S.3     1  LIG1       -0.0648
      3 CL          6.7694   -1.4193   17.4078 Cl      2  LIG2       -0.0835
      4 O           4.9929    2.2807    6.4662 O.co2   1  LIG1       -0.2463
      5 O           3.1393    2.1035    5.2567 O.co2   1  LIG1       -0.2463
      6 N           4.0932    5.2575    7.1199 N.am    1  LIG1       -0.2551
      7 O          -0.4346   -1.7391   12.0621 O.2     2  LIG2       -0.2483
      8 N           2.8566   -0.4850   11.6754 N.2     2  LIG2       -0.0695
      9 N           0.8797   -0.5687   10.5562 N.am    2  LIG2       -0.1694
     10 O           2.3150    3.9855    7.8321 O.2     1  LIG1       -0.2694
     11 N           2.7373    0.5681    9.5812 N.pl3   2  LIG2       -0.2140
     12 C           4.4702    4.0646    4.9788 C.3     1  LIG1        0.0654
     13 H           4.2047    4.0528    4.0455 H       1  LIG1        0.0395
     14 H           5.4232    4.2373    5.0188 H       1  LIG1        0.0395
     15 N           4.2609   -0.1285    7.2683 N.4     2  LIG2        0.2373
     16 C           2.2019   -0.1582   10.5912 C.2     2  LIG2        0.3801
     17 N           5.6745    3.3859   15.6471 N.pl3   1  LIG1       -0.3304
     18 C           4.1757    2.7091    5.6030 C.2     1  LIG1        0.3575
     19 C           2.1431    0.6521    8.2472 C.3     2  LIG2        0.1005
     20 H           2.2609    1.5482    7.8964 H       2  LIG2        0.0688
     21 H           1.1915    0.4750    8.3055 H       2  LIG2        0.0688
     22 C           5.2317    5.8804    7.5436 C.2     1  LIG1        0.1203
     23 C           2.7821   -0.3431    7.3071 C.3     2  LIG2       -0.0024
     24 H           2.5902   -1.2452    7.6072 H       2  LIG2        0.0844
     25 H           2.4126   -0.2346    6.4167 H       2  LIG2        0.0844
     26 C           3.2231   -1.5200   14.6081 C.ar    2  LIG2       -0.0214
     27 C           2.0445   -1.5906   13.7475 C.2     2  LIG2       -0.0058
     28 H           1.2931   -1.9919   14.1185 H       2  LIG2        0.0661
     29 C           0.6225   -1.2244   11.7436 C.2     2  LIG2        0.3414
     30 C           4.4989   -1.2128   14.1392 C.ar    2  LIG2       -0.0531
     31 H           4.6187   -1.0116   13.2397 H       2  LIG2        0.0624
     32 C           3.9968    4.0216   11.8366 C.ar    1  LIG1       -0.0383
     33 C           4.9213    4.9317   12.3908 C.ar    1  LIG1       -0.0562
     34 H           5.1848    5.6718   11.8940 H       1  LIG1        0.0621
     35 C           1.9117   -1.1467   12.4854 C.2     2  LIG2        0.2196
     36 C           5.0954    3.6228   14.4368 C.ar    1  LIG1        0.0297
     37 C           3.4912    4.0944   10.4939 C.3     1  LIG1        0.0319
     38 H           2.7208    3.5983   10.3438 H       1  LIG1        0.0413
     39 C           3.3295    4.5975    8.0998 C.2     1  LIG1        0.2549
     40 C           3.9479    4.7633    9.4136 C.2     1  LIG1        0.0624
     41 C           4.8424   -0.2489    8.6349 C.3     2  LIG2       -0.0024
     42 H           5.7982   -0.0879    8.5989 H       2  LIG2        0.0844
     43 H           4.6981   -1.1461    8.9741 H       2  LIG2        0.0844
     44 C           3.7229    5.1784    5.7023 C.3     1  LIG1        0.0313
     45 H           3.9205    6.0251    5.2727 H       1  LIG1        0.0474
     46 H           2.7683    5.0220    5.6296 H       1  LIG1        0.0474
     47 C           5.5914   -1.2012   14.9899 C.ar    2  LIG2       -0.0428
     48 H           6.4429   -1.0170   14.6615 H       2  LIG2        0.0632
     49 C           3.5912    2.9616   12.6622 C.ar    1  LIG1       -0.0562
     50 H           2.9395    2.3754   12.3496 H       1  LIG1        0.0621
     51 C           5.4032   -1.4648   16.3276 C.ar    2  LIG2        0.0410
     52 C           6.7154    4.2522   16.1876 C.3     1  LIG1        0.0093
     53 H           6.7019    4.1981   17.1554 H       1  LIG1        0.0461
     54 H           6.5257    5.1698   15.9381 H       1  LIG1        0.0461
     55 C           5.4796    2.1092   16.3425 C.3     1  LIG1        0.0093
     56 H           6.2809    1.9020   16.8479 H       1  LIG1        0.0461
     57 H           5.3560    1.4081   15.6842 H       1  LIG1        0.0461
     58 C           5.4403    4.7470   13.6493 C.ar    1  LIG1       -0.0404
     59 H           6.0327    5.3770   13.9929 H       1  LIG1        0.0636
     60 C           4.9220   -1.0294    6.2982 C.3     2  LIG2       -0.0429
     61 H           5.8624   -0.8434    6.2771 H       2  LIG2        0.0778
     62 H           4.5476   -0.8892    5.4251 H       2  LIG2        0.0778
     63 H           4.7821   -1.9424    6.5620 H       2  LIG2        0.0778
     64 C           4.1167    2.7571   13.9053 C.ar    1  LIG1       -0.0404
     65 H           3.8232    2.0336   14.4119 H       1  LIG1        0.0636
     66 C           3.0756   -1.7897   15.9646 C.ar    2  LIG2       -0.0531
     67 H           2.2343   -2.0016   16.2978 H       2  LIG2        0.0624
     68 C           4.2940    2.1117   17.2835 C.3     1  LIG1       -0.0494
     69 H           4.4215    2.7828   17.9581 H       1  LIG1        0.0245
     70 H           4.2136    1.2509   17.6999 H       1  LIG1        0.0245
     71 H           3.4931    2.3038   16.7887 H       1  LIG1        0.0245
     72 C           4.1886    0.7574    9.5545 C.3     2  LIG2        0.1005
     73 H           4.5451    0.6564   10.4510 H       2  LIG2        0.0688
     74 H           4.3927    1.6554    9.2492 H       2  LIG2        0.0688
     75 C           8.0983    3.8779   15.6870 C.3     1  LIG1       -0.0494
     76 H           8.3169    2.9912   15.9847 H       1  LIG1        0.0245
     77 H           8.7433    4.4989   16.0340 H       1  LIG1        0.0245
     78 H           8.1100    3.9059   14.7278 H       1  LIG1        0.0245
     79 C           4.1544   -1.7487   16.8312 C.ar    2  LIG2       -0.0428
     80 H           4.0366   -1.9101   17.7394 H       2  LIG2        0.0632
     81 H           0.2907   -0.3546   10.0010 H       2  LIG2        0.2544
     82 H           4.4563    0.7218    6.9400 H       2  LIG2        0.2033
@<TRIPOS>BOND
     1    13    12    1
     2    12    14    1
     3    12    18    1
     4    12    44    1
     5     5    18   ar
     6    45    44    1
     7    62    60    1
     8    18     4   ar
     9    46    44    1
    10    44     6    1
    11    61    60    1
    12    60    63    1
    13    60    15    1
    14    25    23    1
    15     1    22    2
    16    82    15    1
    17     6    22    1
    18     6    39   am
    19    15    23    1
    20    15    41    1
    21    23    24    1
    22    23    19    1
    23    22     2    1
    24    10    39    2
    25    20    19    1
    26    39    40    1
    27    19    21    1
    28    19    11    1
    29    42    41    1
    30    41    43    1
    31    41    72    1
    32    74    72    1
    33     2    40    2
    34    40    37    1
    35    72    11    1
    36    72    73    1
    37    11    16    1
    38    81     9    1
    39    38    37    1
    40    37    32    1
    41     9    16    1
    42     9    29   am
    43    16     8    2
    44     8    35    1
    45    29     7    2
    46    29    35    1
    47    32    33   ar
    48    32    49   ar
    49    34    33    1
    50    50    49    1
    51    33    58   ar
    52    35    27    2
    53    49    64   ar
    54    31    30    1
    55    58    59    1
    56    58    36   ar
    57    27    28    1
    58    27    26    1
    59    64    65    1
    60    64    36   ar
    61    30    26   ar
    62    30    47   ar
    63    36    17    1
    64    26    66   ar
    65    48    47    1
    66    78    75    1
    67    47    51   ar
    68    17    52    1
    69    17    55    1
    70    57    55    1
    71    75    76    1
    72    75    77    1
    73    75    52    1
    74    54    52    1
    75    66    67    1
    76    66    79   ar
    77    52    53    1
    78    51    79   ar
    79    51     3    1
    80    55    56    1
    81    55    68    1
    82    71    68    1
    83    79    80    1
    84    68    70    1
    85    68    69    1
