@<TRIPOS>MOLECULE
S,S-1,2-dicyclohexylethane-1,2-diol
 168 172 0 0 0
SMALL
GASTEIGER

@<TRIPOS>ATOM
      1 O           2.8916    4.0156    7.3970 O.3     1  LIG1       -0.3890
      2 H           3.7769    4.0395    7.2320 H       1  LIG1        0.2099
      3 O           0.1241    4.1604    7.2140 O.3     1  LIG1       -0.3890
      4 H           0.4791    3.3175    7.7341 H       1  LIG1        0.2099
      5 C           2.2673    5.2081    6.9039 C.3     1  LIG1        0.0841
      6 H           2.8185    5.9954    7.1842 H       1  LIG1        0.0622
      7 C           2.1703    5.2019    5.3816 C.3     1  LIG1       -0.0125
      8 H           1.4325    4.5760    5.1281 H       1  LIG1        0.0326
      9 C           3.4411    4.7113    4.7050 C.3     1  LIG1       -0.0478
     10 H           4.1979    5.2898    4.9775 H       1  LIG1        0.0269
     11 H           3.6364    3.7920    5.0086 H       1  LIG1        0.0269
     12 C           3.3297    4.7216    3.1893 C.3     1  LIG1       -0.0527
     13 H           4.1947    4.4439    2.7960 H       1  LIG1        0.0265
     14 H           2.6426    4.0684    2.9083 H       1  LIG1        0.0265
     15 C           2.9611    6.0824    2.6609 C.3     1  LIG1       -0.0530
     16 H           2.8275    6.0325    1.6819 H       1  LIG1        0.0265
     17 H           3.7021    6.7175    2.8366 H       1  LIG1        0.0265
     18 C           1.6948    6.5928    3.3184 C.3     1  LIG1       -0.0527
     19 H           0.9309    6.0284    3.0410 H       1  LIG1        0.0265
     20 H           1.5171    7.5179    3.0135 H       1  LIG1        0.0265
     21 C           1.8138    6.5747    4.8436 C.3     1  LIG1       -0.0478
     22 H           2.5086    7.2208    5.1222 H       1  LIG1        0.0269
     23 H           0.9532    6.8619    5.2393 H       1  LIG1        0.0269
     24 C           0.8993    5.2931    7.6073 C.3     1  LIG1        0.0841
     25 H           0.4352    6.1068    7.2595 H       1  LIG1        0.0622
     26 C           1.0002    5.4404    9.1318 C.3     1  LIG1       -0.0125
     27 H           1.6968    4.8029    9.4614 H       1  LIG1        0.0326
     28 C          -0.3223    5.1033    9.8272 C.3     1  LIG1       -0.0478
     29 H          -1.0380    5.6859    9.4673 H       1  LIG1        0.0269
     30 H          -0.5649    4.1633    9.6299 H       1  LIG1        0.0269
     31 C          -0.2323    5.2923   11.3405 C.3     1  LIG1       -0.0527
     32 H          -1.1116    5.0959   11.7505 H       1  LIG1        0.0265
     33 H           0.4290    4.6585   11.7135 H       1  LIG1        0.0265
     34 C           0.1803    6.7133   11.6836 C.3     1  LIG1       -0.0530
     35 H           0.2717    6.8041   12.6650 H       1  LIG1        0.0265
     36 H          -0.5226    7.3405   11.3823 H       1  LIG1        0.0265
     37 C           1.5021    7.0702   11.0142 C.3     1  LIG1       -0.0527
     38 H           2.2242    6.5111   11.3943 H       1  LIG1        0.0265
     39 H           1.7190    8.0172   11.2018 H       1  LIG1        0.0265
     40 C           1.4340    6.8540    9.5032 C.3     1  LIG1       -0.0478
     41 H           0.7958    7.5014    9.1123 H       1  LIG1        0.0269
     42 H           2.3252    7.0310    9.1111 H       1  LIG1        0.0269
     43 O           0.5384    1.8126    8.4427 O.3     2  LIG2       -0.3890
     44 H          -0.3863    1.6257    8.4274 H       2  LIG2        0.2099
     45 O           3.3763    1.5762    8.5160 O.3     2  LIG2       -0.3890
     46 H           2.9091    2.3767    8.2959 H       2  LIG2        0.2099
     47 C           1.2035    0.5888    8.0927 C.3     2  LIG2        0.0841
     48 H           0.6195   -0.1774    8.3664 H       2  LIG2        0.0622
     49 C           1.4227    0.5096    6.5674 C.3     2  LIG2       -0.0125
     50 H           2.1189    1.1842    6.3271 H       2  LIG2        0.0326
     51 C           0.1574    0.8508    5.7844 C.3     2  LIG2       -0.0478
     52 H          -0.5585    0.2104    6.0271 H       2  LIG2        0.0269
     53 H          -0.1469    1.7578    6.0354 H       2  LIG2        0.0269
     54 C           0.3902    0.7972    4.2866 C.3     2  LIG2       -0.0527
     55 H          -0.4568    0.9985    3.8156 H       2  LIG2        0.0265
     56 H           1.0535    1.4854    4.0332 H       2  LIG2        0.0265
     57 C           0.8903   -0.5591    3.8563 C.3     2  LIG2       -0.0530
     58 H           1.0871   -0.5447    2.8856 H       2  LIG2        0.0265
     59 H           0.1864   -1.2379    4.0165 H       2  LIG2        0.0265
     60 C           2.1426   -0.9404    4.6201 C.3     2  LIG2       -0.0527
     61 H           2.8827   -0.3383    4.3547 H       2  LIG2        0.0265
     62 H           2.4018   -1.8650    4.3810 H       2  LIG2        0.0265
     63 C           1.9344   -0.8492    6.1347 C.3     2  LIG2       -0.0478
     64 H           1.2873   -1.5432    6.4156 H       2  LIG2        0.0269
     65 H           2.7935   -1.0316    6.5913 H       2  LIG2        0.0269
     66 C           2.4883    0.5236    8.9067 C.3     2  LIG2        0.0841
     67 H           2.9384   -0.3342    8.6557 H       2  LIG2        0.0622
     68 C           2.3184    0.4943   10.4356 C.3     2  LIG2       -0.0125
     69 H           1.5589   -0.1238   10.6400 H       2  LIG2        0.0326
     70 C           1.9967    1.8399   11.0751 C.3     2  LIG2       -0.0478
     71 H           2.7065    2.4881   10.8396 H       2  LIG2        0.0269
     72 H           1.1424    2.1786   10.7058 H       2  LIG2        0.0269
     73 C           1.8844    1.7516   12.5873 C.3     2  LIG2       -0.0527
     74 H           1.7147    2.6531   12.9566 H       2  LIG2        0.0265
     75 H           1.1159    1.1760   12.8252 H       2  LIG2        0.0265
     76 C           3.1486    1.1846   13.2101 C.3     2  LIG2       -0.0530
     77 H           3.9029    1.8073   13.0523 H       2  LIG2        0.0265
     78 H           3.0246    1.0934   14.1879 H       2  LIG2        0.0265
     79 C           3.4761   -0.1671   12.6148 C.3     2  LIG2       -0.0527
     80 H           2.7733   -0.8170   12.8682 H       2  LIG2        0.0265
     81 H           4.3369   -0.4869   12.9829 H       2  LIG2        0.0265
     82 C           3.5731   -0.0916   11.0895 C.3     2  LIG2       -0.0478
     83 H           3.7268   -1.0027   10.7321 H       2  LIG2        0.0269
     84 H           4.3537    0.4663   10.8444 H       2  LIG2        0.0269
     85 O           5.6079   12.4962   11.4060 O.3     3  LIG3       -0.3890
     86 H           6.5269   12.3951   11.5234 H       3  LIG3        0.2099
     87 O           2.8484   12.3691   11.5702 O.3     3  LIG3       -0.3890
     88 H           3.2402   13.1626   11.1887 H       3  LIG3        0.2099
     89 C           4.9809   11.2979   11.8760 C.3     3  LIG3        0.0841
     90 H           5.5315   10.5136   11.5891 H       3  LIG3        0.0622
     91 C           4.8724   11.2876   13.4001 C.3     3  LIG3       -0.0125
     92 H           4.1410   11.9206   13.6583 H       3  LIG3        0.0326
     93 C           6.1526   11.7535   14.0875 C.3     3  LIG3       -0.0478
     94 H           6.9022   11.1696   13.8113 H       3  LIG3        0.0269
     95 H           6.3629   12.6757   13.7946 H       3  LIG3        0.0269
     96 C           6.0260   11.7250   15.6044 C.3     3  LIG3       -0.0527
     97 H           6.8910   11.9907   16.0072 H       3  LIG3        0.0265
     98 H           5.3455   12.3869   15.8865 H       3  LIG3        0.0265
     99 C           5.6372   10.3704   16.1172 C.3     3  LIG3       -0.0530
    100 H           5.4984   10.4145   17.0974 H       3  LIG3        0.0265
    101 H           6.3691    9.7296   15.9403 H       3  LIG3        0.0265
    102 C           4.3678    9.8851   15.4502 C.3     3  LIG3       -0.0527
    103 H           3.6106   10.4599   15.7263 H       3  LIG3        0.0265
    104 H           4.1734    8.9621   15.7466 H       3  LIG3        0.0265
    105 C           4.4983    9.9136   13.9177 C.3     3  LIG3       -0.0478
    106 H           5.1898    9.2633   13.6380 H       3  LIG3        0.0269
    107 H           3.6388    9.6388   13.5125 H       3  LIG3        0.0269
    108 C           3.6218   11.2278   11.1708 C.3     3  LIG3        0.0841
    109 H           3.1509   10.4145   11.5114 H       3  LIG3        0.0622
    110 C           3.7205   11.0945    9.6479 C.3     3  LIG3       -0.0125
    111 H           4.4150   11.7390    9.3263 H       3  LIG3        0.0326
    112 C           2.4047   11.4304    8.9438 C.3     3  LIG3       -0.0478
    113 H           1.6864   10.8519    9.3012 H       3  LIG3        0.0269
    114 H           2.1617   12.3703    9.1386 H       3  LIG3        0.0269
    115 C           2.5022   11.2389    7.4364 C.3     3  LIG3       -0.0527
    116 H           1.6219   11.4296    7.0252 H       3  LIG3        0.0265
    117 H           3.1570   11.8835    7.0670 H       3  LIG3        0.0265
    118 C           2.9267    9.8389    7.0754 C.3     3  LIG3       -0.0530
    119 H           3.0288    9.7667    6.0940 H       3  LIG3        0.0265
    120 H           2.2286    9.1973    7.3611 H       3  LIG3        0.0265
    121 C           4.2410    9.4911    7.7496 C.3     3  LIG3       -0.0527
    122 H           4.9588   10.0638    7.3802 H       3  LIG3        0.0265
    123 H           4.4698    8.5495    7.5512 H       3  LIG3        0.0265
    124 C           4.1709    9.6850    9.2617 C.3     3  LIG3       -0.0478
    125 H           5.0634    9.5109    9.6526 H       3  LIG3        0.0269
    126 H           3.5385    9.0281    9.6443 H       3  LIG3        0.0269
    127 O           3.2862   14.7140   10.3100 O.3     4  LIG4       -0.3890
    128 H           2.4462   14.8172   10.2563 H       4  LIG4        0.2099
    129 O           6.1176   14.9203   10.2899 O.3     4  LIG4       -0.3890
    130 H           5.6727   14.1859   10.5790 H       4  LIG4        0.2099
    131 C           3.9521   15.9420   10.6520 C.3     4  LIG4        0.0841
    132 H           3.3779   16.7070   10.3615 H       4  LIG4        0.0622
    133 C           4.1555   16.0319   12.1725 C.3     4  LIG4       -0.0125
    134 H           4.8384   15.3495   12.4271 H       4  LIG4        0.0326
    135 C           2.8698   15.7126   12.9423 C.3     4  LIG4       -0.0478
    136 H           2.5448   14.8131   12.6829 H       4  LIG4        0.0269
    137 H           2.1708   16.3728   12.7044 H       4  LIG4        0.0269
    138 C           3.1116   15.7497   14.4604 C.3     4  LIG4       -0.0527
    139 H           2.2626   15.5640   14.9350 H       4  LIG4        0.0265
    140 H           3.7611   15.0441   14.7091 H       4  LIG4        0.0265
    141 C           3.6458   17.1027   14.8931 C.3     4  LIG4       -0.0530
    142 H           3.8432   17.0866   15.8626 H       4  LIG4        0.0265
    143 H           2.9596   17.7963   14.7294 H       4  LIG4        0.0265
    144 C           4.9102   17.4456   14.1221 C.3     4  LIG4       -0.0527
    145 H           5.6266   16.8060   14.3672 H       4  LIG4        0.0265
    146 H           5.2111   18.3533   14.3744 H       4  LIG4        0.0265
    147 C           4.6810   17.3911   12.6076 C.3     4  LIG4       -0.0478
    148 H           4.0310   18.0934   12.3494 H       4  LIG4        0.0269
    149 H           5.5333   17.5776   12.1402 H       4  LIG4        0.0269
    150 C           5.2495   15.9766    9.8523 C.3     4  LIG4        0.0841
    151 H           5.7056   16.8349   10.0925 H       4  LIG4        0.0622
    152 C           5.1245   15.9676    8.3258 C.3     4  LIG4       -0.0125
    153 H           4.4109   16.6245    8.0807 H       4  LIG4        0.0326
    154 C           4.7495   14.6303    7.6934 C.3     4  LIG4       -0.0478
    155 H           3.8663   14.3427    8.0389 H       4  LIG4        0.0269
    156 H           5.4148   13.9466    7.9612 H       4  LIG4        0.0269
    157 C           4.6925   14.7045    6.1681 C.3     4  LIG4       -0.0527
    158 H           4.4872   13.8063    5.8035 H       4  LIG4        0.0265
    159 H           3.9647   15.3165    5.8968 H       4  LIG4        0.0265
    160 C           6.0137   15.1980    5.5860 C.3     4  LIG4       -0.0530
    161 H           6.7277   14.5407    5.7772 H       4  LIG4        0.0265
    162 H           5.9315   15.2876    4.6034 H       4  LIG4        0.0265
    163 C           6.3834   16.5366    6.1872 C.3     4  LIG4       -0.0527
    164 H           5.7154   17.2145    5.9147 H       4  LIG4        0.0265
    165 H           7.2661   16.8184    5.8394 H       4  LIG4        0.0265
    166 C           6.4383   16.4640    7.7030 C.3     4  LIG4       -0.0478
    167 H           6.6458   17.3631    8.0604 H       4  LIG4        0.0269
    168 H           7.1721   15.8570    7.9695 H       4  LIG4        0.0269
@<TRIPOS>BOND
     1    16    15    1
     2    15    17    1
     3    15    12    1
     4    15    18    1
     5    13    12    1
     6    58    57    1
     7    14    12    1
     8    20    18    1
     9    19    18    1
    10    12     9    1
    11    18    21    1
    12    55    54    1
    13    57    59    1
    14    57    54    1
    15    57    60    1
    16    56    54    1
    17    54    51    1
    18    61    60    1
    19    62    60    1
    20   162   160    1
    21    60    63    1
    22     9    10    1
    23     9    11    1
    24     9     7    1
    25    21    22    1
    26    21    23    1
    27    21     7    1
    28     8     7    1
    29     7     5    1
    30   160   161    1
    31   160   157    1
    32   160   163    1
    33    51    52    1
    34    51    53    1
    35    51    49    1
    36   158   157    1
    37   165   163    1
    38   159   157    1
    39   164   163    1
    40   119   118    1
    41    63    64    1
    42    63    49    1
    43    63    65    1
    44   157   154    1
    45   163   166    1
    46    50    49    1
    47    49    47    1
    48     5     6    1
    49     5     1    1
    50     5    24    1
    51   116   115    1
    52   117   115    1
    53   118   120    1
    54   118   115    1
    55   118   121    1
    56     3    24    1
    57     3     4    1
    58     2     1    1
    59    25    24    1
    60   122   121    1
    61   115   112    1
    62   123   121    1
    63    24    26    1
    64   154   156    1
    65   154   155    1
    66   154   152    1
    67   166   168    1
    68   166   167    1
    69   166   152    1
    70   121   124    1
    71   153   152    1
    72    47    48    1
    73    47    43    1
    74    47    66    1
    75    46    45    1
    76   152   150    1
    77    44    43    1
    78    45    66    1
    79    67    66    1
    80    66    68    1
    81   112   114    1
    82   112   113    1
    83   112   110    1
    84    42    40    1
    85    41    40    1
    86    26    27    1
    87    26    40    1
    88    26    28    1
    89   124   126    1
    90   124   110    1
    91   124   125    1
    92   111   110    1
    93    29    28    1
    94    40    37    1
    95    30    28    1
    96   110   108    1
    97    28    31    1
    98   150   151    1
    99   150   129    1
   100   150   131    1
   101   128   127    1
   102   129   130    1
   103   127   131    1
   104   132   131    1
   105    68    69    1
   106    68    70    1
   107    68    82    1
   108   131   133    1
   109    72    70    1
   110    83    82    1
   111    71    70    1
   112    84    82    1
   113    37    39    1
   114    37    38    1
   115    37    34    1
   116    70    73    1
   117    82    79    1
   118   108   109    1
   119   108    87    1
   120   108    89    1
   121    88    87    1
   122    31    34    1
   123    31    33    1
   124    31    32    1
   125    36    34    1
   126    85    86    1
   127    85    89    1
   128    90    89    1
   129    34    35    1
   130    89    91    1
   131   149   147    1
   132   133   134    1
   133   133   147    1
   134   133   135    1
   135   148   147    1
   136    73    75    1
   137    73    74    1
   138    73    76    1
   139   147   144    1
   140    79    80    1
   141    79    81    1
   142    79    76    1
   143   136   135    1
   144   137   135    1
   145   135   138    1
   146    77    76    1
   147    76    78    1
   148    91    92    1
   149    91   105    1
   150    91    93    1
   151   107   105    1
   152   106   105    1
   153    95    93    1
   154    94    93    1
   155   105   102    1
   156    93    96    1
   157   144   145    1
   158   144   146    1
   159   144   141    1
   160   138   140    1
   161   138   141    1
   162   138   139    1
   163   143   141    1
   164   141   142    1
   165   102   103    1
   166   102   104    1
   167   102    99    1
   168    96    98    1
   169    96    97    1
   170    96    99    1
   171   101    99    1
   172    99   100    1
