@<TRIPOS>MOLECULE
?
 64 68 0 0 0
SMALL
GASTEIGER

@<TRIPOS>ATOM
      1 O           4.3102    5.9367    3.5454 O.3     1  LIG1       -0.3831
      2 H           4.6402    5.4192    3.0032 H       1  LIG1        0.2107
      3 C           4.7586    8.4930    3.4066 C.3     1  LIG1       -0.0262
      4 H           4.0051    8.1101    2.9107 H       1  LIG1        0.0311
      5 C           5.9902    7.6170    3.2159 C.3     1  LIG1       -0.0011
      6 H           6.0899    7.2476    2.3139 H       1  LIG1        0.0338
      7 C           7.2094    8.3168    3.7388 C.3     1  LIG1       -0.0345
      8 H           8.0115    7.8744    3.3887 H       1  LIG1        0.0305
      9 C           7.2231    8.2515    5.2343 C.3     1  LIG1       -0.0464
     10 H           7.9106    8.8317    5.5966 H       1  LIG1        0.0271
     11 H           7.3875    7.3454    5.5362 H       1  LIG1        0.0271
     12 C           5.8271    8.7253    5.6717 C.3     1  LIG1       -0.0319
     13 H           5.7075    8.5615    6.6309 H       1  LIG1        0.0307
     14 C           5.7897   10.2482    5.3885 C.3     1  LIG1       -0.0467
     15 H           4.9304   10.6084    5.6557 H       1  LIG1        0.0271
     16 H           6.4797   10.6946    5.9037 H       1  LIG1        0.0271
     17 C           6.0139   10.5000    3.8987 C.3     1  LIG1       -0.0402
     18 H           6.0986   11.4622    3.7368 H       1  LIG1        0.0301
     19 C           7.2294    9.7787    3.3353 C.3     1  LIG1       -0.0470
     20 H           7.2294    9.8494    2.3679 H       1  LIG1        0.0271
     21 H           8.0389   10.1973    3.6681 H       1  LIG1        0.0271
     22 C           4.8196    9.9696    3.1683 C.3     1  LIG1       -0.0464
     23 H           4.0113   10.3956    3.4959 H       1  LIG1        0.0271
     24 H           4.8993   10.1513    2.2188 H       1  LIG1        0.0271
     25 C           4.7498    7.9508    4.8668 C.3     1  LIG1        0.0072
     26 C           5.3651    6.6617    4.2257 C.3     1  LIG1        0.1001
     27 C           6.1347    5.6038    4.9831 C.ar    1  LIG1       -0.0153
     28 C           7.1061    4.8893    4.3189 C.ar    1  LIG1       -0.0551
     29 H           7.4224    5.2266    3.3469 H       1  LIG1        0.0621
     30 C           7.7337    3.8138    4.9285 C.ar    1  LIG1       -0.0473
     31 H           8.3938    3.2716    4.3876 H       1  LIG1        0.0626
     32 C           7.4274    3.4568    6.2345 C.ar    1  LIG1        0.0632
     33 C           6.4585    4.1890    6.9000 C.ar    1  LIG1       -0.0473
     34 H           6.3763    3.9904    7.8630 H       1  LIG1        0.0626
     35 C           5.8209    5.2335    6.2692 C.ar    1  LIG1       -0.0551
     36 H           5.1807    5.6894    6.7580 H       1  LIG1        0.0621
     37 C           8.1260    2.3169    6.8865 C.2     1  LIG1        0.3865
     38 C           3.4434    7.8945    5.5747 C.3     1  LIG1       -0.0561
     39 H           2.7983    7.4517    5.0197 H       1  LIG1        0.0236
     40 H           3.1446    8.7857    5.7643 H       1  LIG1        0.0236
     41 H           3.5456    7.4086    6.3970 H       1  LIG1        0.0236
     42 O           8.1634    2.2919    8.1373 O.co2   1  LIG1       -0.2406
     43 O           8.6429    1.4231    6.1561 O.co2   1  LIG1       -0.2406
     44 N           8.1086    0.3674    3.6411 N.4     2  LIG2        0.2239
     45 H           8.2394    0.6641    4.4698 H       2  LIG2        0.2000
     46 H           8.0675    1.0580    3.0816 H       2  LIG2        0.2000
     47 H           8.7823   -0.1639    3.4073 H       2  LIG2        0.2000
     48 C           6.8346   -0.3916    3.5846 C.3     2  LIG2       -0.0014
     49 H           6.9056   -1.1385    4.2135 H       2  LIG2        0.0900
     50 C           6.6802   -0.9714    2.2002 C.3     2  LIG2       -0.0173
     51 H           7.4373   -1.5266    1.9991 H       2  LIG2        0.0288
     52 H           6.6266   -0.2587    1.5585 H       2  LIG2        0.0288
     53 H           5.8781   -1.4978    2.1610 H       2  LIG2        0.0288
     54 C           5.6901    0.4634    4.0253 C.ar    2  LIG2       -0.0002
     55 C           5.2754    1.5404    3.2512 C.ar    2  LIG2       -0.0533
     56 H           5.8532    1.6876    2.5054 H       2  LIG2        0.0622
     57 C           4.2156    2.3258    3.6514 C.ar    2  LIG2       -0.0613
     58 H           3.9976    3.0474    3.0386 H       2  LIG2        0.0618
     59 C           3.5817    2.0527    4.8469 C.ar    2  LIG2       -0.0617
     60 H           2.7274    2.4724    5.1713 H       2  LIG2        0.0618
     61 C           3.9578    0.9918    5.5953 C.ar    2  LIG2       -0.0613
     62 H           3.5020    0.7935    6.3816 H       2  LIG2        0.0618
     63 C           5.0288    0.1897    5.1944 C.ar    2  LIG2       -0.0533
     64 H           5.3925   -0.5750    5.8780 H       2  LIG2        0.0622
@<TRIPOS>BOND
     1    52    50    1
     2    51    50    1
     3    53    50    1
     4    50    48    1
     5    24    22    1
     6     6     5    1
     7    20    19    1
     8    56    55    1
     9     4     3    1
    10     2     1    1
    11    58    57    1
    12    46    44    1
    13    22     3    1
    14    22    23    1
    15    22    17    1
    16     5     3    1
    17     5     7    1
    18     5    26    1
    19    55    57   ar
    20    55    54   ar
    21    19    21    1
    22    19     7    1
    23    19    17    1
    24    29    28    1
    25     8     7    1
    26     3    25    1
    27    47    44    1
    28     1    26    1
    29    48    44    1
    30    48    54    1
    31    48    49    1
    32    44    45    1
    33    57    59   ar
    34    18    17    1
    35     7     9    1
    36    17    14    1
    37    54    63   ar
    38    26    25    1
    39    26    27    1
    40    28    30   ar
    41    28    27   ar
    42    31    30    1
    43    59    60    1
    44    59    61   ar
    45    25    38    1
    46    25    12    1
    47    30    32   ar
    48    27    35   ar
    49    39    38    1
    50    63    61   ar
    51    63    64    1
    52     9    11    1
    53     9    10    1
    54     9    12    1
    55    14    15    1
    56    14    12    1
    57    14    16    1
    58    38    40    1
    59    38    41    1
    60    61    62    1
    61    12    13    1
    62    43    37   ar
    63    32    37    1
    64    32    33   ar
    65    35    36    1
    66    35    33   ar
    67    37    42   ar
    68    33    34    1
