@<TRIPOS>MOLECULE
2,3-dimethyl-2,3-butanediol
 44 41 0 0 0
SMALL
GASTEIGER

@<TRIPOS>ATOM
      1 C           7.3695    6.4905    2.5371 C.3     1  LIG1        0.0885
      2 C           6.5922    7.6363    3.1801 C.3     1  LIG1       -0.0336
      3 H           5.6725    7.6366    2.8422 H       1  LIG1        0.0258
      4 H           7.0231    8.4874    2.9579 H       1  LIG1        0.0258
      5 H           6.5825    7.5187    4.1530 H       1  LIG1        0.0258
      6 C           7.1800    6.5140    1.0267 C.3     1  LIG1       -0.0336
      7 H           7.7401    5.8219    0.6167 H       1  LIG1        0.0258
      8 H           7.4386    7.3928    0.6789 H       1  LIG1        0.0258
      9 H           6.2392    6.3418    0.8131 H       1  LIG1        0.0258
     10 O           6.7899    5.2788    3.0753 O.3     1  LIG1       -0.3863
     11 H           6.7451    4.7176    2.4678 H       1  LIG1        0.2103
     12 C           5.8341    2.3399   -0.9813 C.3     2  LIG2        0.0885
     13 C           6.9751    3.2306   -1.4392 C.3     2  LIG2       -0.0336
     14 H           6.8968    3.3921   -2.4023 H       2  LIG2        0.0258
     15 H           7.8305    2.7899   -1.2497 H       2  LIG2        0.0258
     16 H           6.9357    4.0847   -0.9605 H       2  LIG2        0.0258
     17 C           5.8794    1.0034   -1.7104 C.3     2  LIG2       -0.0336
     18 H           5.1141    0.4553   -1.4364 H       2  LIG2        0.0258
     19 H           6.7122    0.5376   -1.4866 H       2  LIG2        0.0258
     20 H           5.8412    1.1576   -2.6773 H       2  LIG2        0.0258
     21 C           5.8184    2.1791    0.5642 C.3     2  LIG2        0.0885
     22 C           4.5781    1.4327    1.0505 C.3     2  LIG2       -0.0336
     23 H           4.5864    1.3885    2.0290 H       2  LIG2        0.0258
     24 H           4.5786    0.5247    0.6822 H       2  LIG2        0.0258
     25 H           3.7739    1.9067    0.7520 H       2  LIG2        0.0258
     26 C           7.0794    1.5028    1.0867 C.3     2  LIG2       -0.0336
     27 H           7.8643    2.0214    0.8142 H       2  LIG2        0.0258
     28 H           7.1407    0.5974    0.7171 H       2  LIG2        0.0258
     29 H           7.0423    1.4547    2.0650 H       2  LIG2        0.0258
     30 O           4.5971    2.9875   -1.3122 O.3     2  LIG2       -0.3863
     31 H           4.5091    3.0094   -2.1087 H       2  LIG2        0.2103
     32 O           5.8253    3.4875    1.1637 O.3     2  LIG2       -0.3863
     33 H           5.1355    3.8619    0.9889 H       2  LIG2        0.2103
     34 C           3.9548    4.8138    5.3936 C.3     3  LIG3        0.0885
     35 C           4.9770    5.5127    6.2867 C.3     3  LIG3       -0.0336
     36 H           5.8817    5.2826    5.9888 H       3  LIG3        0.0258
     37 H           4.8543    5.2197    7.2145 H       3  LIG3        0.0258
     38 H           4.8505    6.4822    6.2300 H       3  LIG3        0.0258
     39 C           2.5554    5.3288    5.7199 C.3     3  LIG3       -0.0336
     40 H           2.5391    6.3046    5.6385 H       3  LIG3        0.0258
     41 H           2.3189    5.0728    6.6361 H       3  LIG3        0.0258
     42 H           1.9092    4.9388    5.0949 H       3  LIG3        0.0258
     43 O           4.1923    5.1834    4.0200 O.3     3  LIG3       -0.3863
     44 H           5.0338    5.2391    3.8681 H       3  LIG3        0.2103
@<TRIPOS>BOND
     1    20    17    1
     2    14    13    1
     3    31    30    1
     4    17    19    1
     5    17    18    1
     6    17    12    1
     7    13    15    1
     8    13    12    1
     9    13    16    1
    10    30    12    1
    11    12    21    1
    12    21    22    1
    13    21    26    1
    14    21    32    1
    15     7     6    1
    16     8     6    1
    17    24    22    1
    18    28    26    1
    19    25    22    1
    20     9     6    1
    21    27    26    1
    22    33    32    1
    23     6     1    1
    24    22    23    1
    25    26    29    1
    26    11    10    1
    27     1    10    1
    28     1     2    1
    29     3     2    1
    30     4     2    1
    31     2     5    1
    32    44    43    1
    33    43    34    1
    34    42    39    1
    35    34    39    1
    36    34    35    1
    37    40    39    1
    38    39    41    1
    39    36    35    1
    40    38    35    1
    41    35    37    1
