@<TRIPOS>MOLECULE
N-(2-iodophenyl)-3-nitrobenzamide
 28 29 0 0 0
SMALL
GASTEIGER

@<TRIPOS>ATOM
      1 C           3.3522    2.9882    2.9336 C.ar    1  LIG1        0.0392
      2 C           2.1568    2.4850    3.4341 C.ar    1  LIG1       -0.0194
      3 C           1.0521    2.4730    2.5936 C.ar    1  LIG1        0.1269
      4 C           1.0888    2.9446    1.2941 C.ar    1  LIG1       -0.0314
      5 C           2.2710    3.4771    0.8273 C.ar    1  LIG1       -0.0589
      6 C           3.4050    3.4944    1.6364 C.ar    1  LIG1       -0.0495
      7 C           4.5638    2.8425    3.8129 C.2     1  LIG1        0.2483
      8 O           4.5431    2.0930    4.7865 O.2     1  LIG1       -0.2699
      9 N           5.6681    3.5124    3.4287 N.am    1  LIG1       -0.2806
     10 C           6.9444    3.3029    4.0237 C.ar    1  LIG1        0.0469
     11 C           7.9944    2.8034    3.2616 C.ar    1  LIG1        0.0346
     12 C           9.2566    2.6292    3.8301 C.ar    1  LIG1       -0.0468
     13 C           9.4526    2.9454    5.1625 C.ar    1  LIG1       -0.0607
     14 C           8.4092    3.4433    5.9304 C.ar    1  LIG1       -0.0599
     15 C           7.1594    3.6318    5.3560 C.ar    1  LIG1       -0.0395
     16 N          -0.2034    1.8865    3.0934 N.pl3   1  LIG1        0.0564
     17 O          -1.0838    1.6439    2.2745 O.2     1  LIG1       -0.1261
     18 O          -0.3101    1.6657    4.2932 O.2     1  LIG1       -0.1261
     19 I           7.6842    2.2791    1.2506 I       1  LIG1       -0.0419
     20 H           2.0979    2.1583    4.3248 H       1  LIG1        0.0648
     21 H           0.3192    2.9033    0.7381 H       1  LIG1        0.0640
     22 H           2.3121    3.8346   -0.0518 H       1  LIG1        0.0618
     23 H           4.2201    3.8526    1.3013 H       1  LIG1        0.0625
     24 H           5.6848    3.9893    2.6894 H       1  LIG1        0.1552
     25 H           9.9750    2.2965    3.3057 H       1  LIG1        0.0628
     26 H          10.3089    2.8200    5.5549 H       1  LIG1        0.0618
     27 H           8.5504    3.6551    6.8458 H       1  LIG1        0.0618
     28 H           6.4480    3.9870    5.8760 H       1  LIG1        0.0636
@<TRIPOS>BOND
     1    22     5    1
     2    21     4    1
     3     5     4   ar
     4     5     6   ar
     5    19    11    1
     6     4     3   ar
     7    23     6    1
     8     6     1   ar
     9    17    16    2
    10     3    16    1
    11     3     2   ar
    12    24     9    1
    13     1     2   ar
    14     1     7    1
    15    16    18    2
    16    11    12   ar
    17    11    10   ar
    18    25    12    1
    19     9     7   am
    20     9    10    1
    21     2    20    1
    22     7     8    2
    23    12    13   ar
    24    10    15   ar
    25    13    26    1
    26    13    14   ar
    27    15    28    1
    28    15    14   ar
    29    14    27    1
