@<TRIPOS>MOLECULE
N-(4-Methylphenyl)-2-chloronicotinamide
 56 58 0 0 0
SMALL
GASTEIGER

@<TRIPOS>ATOM
      1 N           8.4131    8.0509   -0.9662 N.ar    1  LIG1       -0.2428
      2 C           8.5610    8.0808    0.3434 C.ar    1  LIG1        0.1413
      3 CL          8.6138    6.5322    1.1365 Cl      1  LIG1       -0.0612
      4 C           8.6999    9.2406    1.1143 C.ar    1  LIG1        0.0738
      5 C           8.6153   10.4475    0.4389 C.ar    1  LIG1       -0.0453
      6 C           8.4584   10.4483   -0.9383 C.ar    1  LIG1       -0.0428
      7 C           8.3789    9.2347   -1.5955 C.ar    1  LIG1        0.0293
      8 C           9.0818    9.1783    2.5693 C.2     1  LIG1        0.2512
      9 O          10.2678    9.0411    2.8846 O.2     1  LIG1       -0.2697
     10 N           8.0814    9.2911    3.4466 N.am    1  LIG1       -0.2814
     11 C           8.2046    9.1649    4.8608 C.ar    1  LIG1        0.0337
     12 C           7.1783    8.5220    5.5409 C.ar    1  LIG1       -0.0402
     13 C           7.2432    8.3475    6.9157 C.ar    1  LIG1       -0.0571
     14 C           8.3401    8.8110    7.6480 C.ar    1  LIG1       -0.0503
     15 C           9.3408    9.4896    6.9526 C.ar    1  LIG1       -0.0571
     16 C           9.2906    9.6719    5.5741 C.ar    1  LIG1       -0.0402
     17 C           8.4479    8.5628    9.1268 C.3     1  LIG1       -0.0397
     18 N           3.1915   10.0359    6.3464 N.ar    2  LIG2       -0.2428
     19 C           3.5116   10.0597    5.0656 C.ar    2  LIG2        0.1413
     20 CL          3.6406   11.6420    4.3517 Cl      2  LIG2       -0.0612
     21 C           3.7318    8.9354    4.2728 C.ar    2  LIG2        0.0738
     22 C           3.5677    7.7012    4.8816 C.ar    2  LIG2       -0.0453
     23 C           3.2358    7.6396    6.2322 C.ar    2  LIG2       -0.0428
     24 C           3.0668    8.8276    6.9189 C.ar    2  LIG2        0.0293
     25 C           4.2111    9.0395    2.8446 C.2     2  LIG2        0.2512
     26 O           5.3883    9.2615    2.5885 O.2     2  LIG2       -0.2697
     27 N           3.2584    8.8451    1.9232 N.am    2  LIG2       -0.2814
     28 C           3.3763    8.9587    0.5143 C.ar    2  LIG2        0.0337
     29 C           2.3379    8.4216   -0.2501 C.ar    2  LIG2       -0.0402
     30 C           2.3078    8.6147   -1.6243 C.ar    2  LIG2       -0.0571
     31 C           3.3102    9.3379   -2.2744 C.ar    2  LIG2       -0.0503
     32 C           3.2468    9.5966   -3.7532 C.3     2  LIG2       -0.0397
     33 C           4.3692    9.8166   -1.5010 C.ar    2  LIG2       -0.0571
     34 C           4.4128    9.6373   -0.1222 C.ar    2  LIG2       -0.0402
     35 H           8.6643   11.2679    0.9159 H       1  LIG1        0.0626
     36 H           8.4069   11.2657   -1.4202 H       1  LIG1        0.0633
     37 H           8.2960    9.2395   -2.5419 H       1  LIG1        0.0830
     38 H           7.2747    9.2117    3.1022 H       1  LIG1        0.1551
     39 H           6.4255    8.1989    5.0601 H       1  LIG1        0.0636
     40 H           6.5318    7.9073    7.3661 H       1  LIG1        0.0621
     41 H          10.0803    9.8384    7.4361 H       1  LIG1        0.0621
     42 H           9.9871   10.1355    5.1248 H       1  LIG1        0.0636
     43 H           8.2010    7.6340    9.3207 H       1  LIG1        0.0278
     44 H           7.8435    9.1682    9.6041 H       1  LIG1        0.0278
     45 H           9.3694    8.7237    9.4188 H       1  LIG1        0.0278
     46 H           3.6809    6.9023    4.3802 H       2  LIG2        0.0626
     47 H           3.1280    6.8038    6.6700 H       2  LIG2        0.0633
     48 H           2.8519    8.7872    7.8434 H       2  LIG2        0.0830
     49 H           2.4459    8.7244    2.2391 H       2  LIG2        0.1551
     50 H           1.6496    7.9219    0.1724 H       2  LIG2        0.0636
     51 H           1.5925    8.2490   -2.1314 H       2  LIG2        0.0621
     52 H           2.3126    9.5724   -4.0494 H       2  LIG2        0.0278
     53 H           3.7575    8.9080   -4.2272 H       2  LIG2        0.0278
     54 H           3.6288   10.4777   -3.9470 H       2  LIG2        0.0278
     55 H           5.0812   10.2783   -1.9288 H       2  LIG2        0.0621
     56 H           5.1439    9.9753    0.3814 H       2  LIG2        0.0636
@<TRIPOS>BOND
     1    53    32    1
     2    52    32    1
     3    54    32    1
     4    32    31    1
     5    37     7    1
     6    31    30   ar
     7    31    33   ar
     8    51    30    1
     9    55    33    1
    10    30    29   ar
    11     7     1   ar
    12     7     6   ar
    13    33    34   ar
    14    36     6    1
    15     1     2   ar
    16     6     5   ar
    17    29    50    1
    18    29    28   ar
    19    34    56    1
    20    34    28   ar
    21     2     4   ar
    22     2     3    1
    23     5    35    1
    24     5     4   ar
    25    28    27    1
    26     4     8    1
    27    27    49    1
    28    27    25   am
    29     8     9    2
    30     8    10   am
    31    26    25    2
    32    25    21    1
    33    38    10    1
    34    10    11    1
    35    21    22   ar
    36    21    19   ar
    37    20    19    1
    38    46    22    1
    39    11    12   ar
    40    11    16   ar
    41    22    23   ar
    42    39    12    1
    43    19    18   ar
    44    42    16    1
    45    12    13   ar
    46    16    15   ar
    47    23    47    1
    48    23    24   ar
    49    18    24   ar
    50    13    40    1
    51    13    14   ar
    52    24    48    1
    53    15    41    1
    54    15    14   ar
    55    14    17    1
    56    17    43    1
    57    17    45    1
    58    17    44    1
