@<TRIPOS>MOLECULE
C6 H5 F1 O1
 13 13 0 0 0
SMALL
GASTEIGER

@<TRIPOS>ATOM
      1 C          -1.2068   -1.8069   -1.4973 C.ar    1  LIG1        0.1196
      2 C          -2.2000   -2.7732   -1.3587 C.ar    1  LIG1        0.0150
      3 C          -3.2007   -2.7868   -2.3113 C.ar    1  LIG1        0.1269
      4 C          -3.2614   -1.9021   -3.3635 C.ar    1  LIG1       -0.0262
      5 C          -2.2628   -0.9556   -3.4692 C.ar    1  LIG1       -0.0556
      6 C          -1.2279   -0.8999   -2.5459 C.ar    1  LIG1       -0.0200
      7 O          -0.1738   -1.7071   -0.5952 O.3     1  LIG1       -0.5067
      8 F          -4.1700   -3.7303   -2.1979 F       1  LIG1       -0.2054
      9 H          -0.0824   -2.3751   -0.2044 H       1  LIG1        0.2921
     10 H          -2.1898   -3.3955   -0.6407 H       1  LIG1        0.0683
     11 H          -3.9678   -1.9416   -3.9971 H       1  LIG1        0.0646
     12 H          -2.2831   -0.3322   -4.1855 H       1  LIG1        0.0620
     13 H          -0.5418   -0.2487   -2.6321 H       1  LIG1        0.0654
@<TRIPOS>BOND
     1    12     5    1
     2    11     4    1
     3     5     4   ar
     4     5     6   ar
     5     4     3   ar
     6    13     6    1
     7     6     1   ar
     8     3     8    1
     9     3     2   ar
    10     1     2   ar
    11     1     7    1
    12     2    10    1
    13     7     9    1
