@<TRIPOS>MOLECULE
(C4 H9 )4 N 1+, C2 H O4 1-, 2C S (N H2 )2
 75 71 0 0 0
SMALL
GASTEIGER

@<TRIPOS>ATOM
      1 S           3.0552    6.1651   14.0520 S.2     1  LIG1       -0.0193
      2 C           2.9599    4.5733   13.4927 C.2     1  LIG1        0.1250
      3 N           2.5100    3.6041   14.2840 N.am    1  LIG1       -0.3408
      4 N           3.3130    4.2186   12.2566 N.am    1  LIG1       -0.3408
      5 S           3.2127    0.6125   12.5203 S.2     2  LIG2       -0.0193
      6 C           3.8259   -0.3287   11.2651 C.2     2  LIG2        0.1250
      7 N           4.2119    0.2058   10.1243 N.am    2  LIG2       -0.3408
      8 N           3.9566   -1.6487   11.3986 N.am    2  LIG2       -0.3408
      9 C           5.1607    5.3797    9.1233 C.2     3  LIG3        0.4661
     10 C           4.9656    3.8609    8.8786 C.2     3  LIG3        0.4661
     11 O           5.7563    5.9822    8.2113 O.co2   3  LIG3       -0.2331
     12 O           4.7604    5.8653   10.1624 O.co2   3  LIG3       -0.2331
     13 O           5.4719    3.4193    7.7728 O.co2   3  LIG3       -0.2331
     14 O           4.3804    3.1864    9.6889 O.co2   3  LIG3       -0.2331
     15 N           8.2250    8.0645   12.2725 N.4     4  LIG4        0.2433
     16 C           8.9387    8.5052   13.5435 C.3     4  LIG4       -0.0301
     17 C           8.0299    9.0048   14.6462 C.3     4  LIG4       -0.0127
     18 C           8.8571    9.4255   15.8538 C.3     4  LIG4       -0.0511
     19 C           9.5505   10.7474   15.6949 C.3     4  LIG4       -0.0651
     20 C           7.2164    6.9684   12.5616 C.3     4  LIG4       -0.0301
     21 C           7.7523    5.7344   13.2544 C.3     4  LIG4       -0.0127
     22 C           6.6751    4.7202   13.4514 C.3     4  LIG4       -0.0511
     23 C           7.1110    3.5332   14.2395 C.3     4  LIG4       -0.0651
     24 C           7.4653    9.2266   11.6401 C.3     4  LIG4       -0.0301
     25 C           8.2796   10.4646   11.3604 C.3     4  LIG4       -0.0127
     26 C           7.4928   11.5458   10.7598 C.3     4  LIG4       -0.0511
     27 C           8.2967   12.8027   10.4643 C.3     4  LIG4       -0.0651
     28 C           9.3229    7.5589   11.3509 C.3     4  LIG4       -0.0301
     29 C           8.8919    6.9814   10.0226 C.3     4  LIG4       -0.0127
     30 C          10.0882    6.4279    9.2727 C.3     4  LIG4       -0.0511
     31 C           9.8142    5.7004    8.1350 C.3     4  LIG4       -0.0651
     32 H           2.2497    3.8060   15.1229 H       1  LIG1        0.1440
     33 H           2.4644    2.7548   13.9916 H       1  LIG1        0.1440
     34 H           3.6063    4.8471   11.6846 H       1  LIG1        0.1440
     35 H           3.2567    3.3603   11.9928 H       1  LIG1        0.1440
     36 H           4.1576    1.0971   10.0099 H       2  LIG2        0.1440
     37 H           4.5330   -0.3147    9.4665 H       2  LIG2        0.1440
     38 H           3.7137   -2.0314   12.1771 H       2  LIG2        0.1440
     39 H           4.2798   -2.1563   10.7312 H       2  LIG2        0.1440
     40 H           9.5397    9.2186   13.3179 H       4  LIG4        0.0815
     41 H           9.4598    7.7768   13.8899 H       4  LIG4        0.0815
     42 H           7.4211    8.3024   14.8909 H       4  LIG4        0.0317
     43 H           7.5228    9.7572   14.3348 H       4  LIG4        0.0317
     44 H           9.5139    8.7420   16.0063 H       4  LIG4        0.0264
     45 H           8.3031    9.4774   16.6355 H       4  LIG4        0.0264
     46 H          10.0762   10.9452   16.4734 H       4  LIG4        0.0230
     47 H          10.1228   10.6974   14.9290 H       4  LIG4        0.0230
     48 H           8.8997   11.4418   15.5646 H       4  LIG4        0.0230
     49 H           6.8287    6.6886   11.7291 H       4  LIG4        0.0815
     50 H           6.5174    7.3361   13.1082 H       4  LIG4        0.0815
     51 H           8.0938    5.9832   14.1155 H       4  LIG4        0.0317
     52 H           8.4688    5.3657   12.7300 H       4  LIG4        0.0317
     53 H           6.3866    4.4285   12.5839 H       4  LIG4        0.0264
     54 H           5.9298    5.1299   13.8963 H       4  LIG4        0.0264
     55 H           6.4045    2.8907   14.3348 H       4  LIG4        0.0230
     56 H           7.8522    3.1275   13.7851 H       4  LIG4        0.0230
     57 H           7.3932    3.8329   15.1070 H       4  LIG4        0.0230
     58 H           6.7409    9.4724   12.2184 H       4  LIG4        0.0815
     59 H           7.0918    8.9259   10.8075 H       4  LIG4        0.0815
     60 H           8.9958   10.2418   10.7630 H       4  LIG4        0.0317
     61 H           8.6570   10.7824   12.1835 H       4  LIG4        0.0317
     62 H           6.7832   11.7756   11.3604 H       4  LIG4        0.0264
     63 H           7.1070   11.2220    9.9400 H       4  LIG4        0.0264
     64 H           7.7658   13.5002   10.0703 H       4  LIG4        0.0230
     65 H           8.6759   13.1155   11.2873 H       4  LIG4        0.0230
     66 H           8.9912   12.5599    9.9463 H       4  LIG4        0.0230
     67 H           9.8088    6.8635   11.7990 H       4  LIG4        0.0815
     68 H           9.9338    8.2794   11.1793 H       4  LIG4        0.0815
     69 H           8.4885    7.6818    9.5046 H       4  LIG4        0.0317
     70 H           8.2462    6.2850   10.1624 H       4  LIG4        0.0317
     71 H          10.5496    5.8533   10.0417 H       4  LIG4        0.0264
     72 H          10.6633    7.1533    9.0216 H       4  LIG4        0.0264
     73 H          10.5936    5.3567    7.6933 H       4  LIG4        0.0230
     74 H           9.2454    4.9720    8.3924 H       4  LIG4        0.0230
     75 H           9.3378    6.2820    7.5376 H       4  LIG4        0.0230
@<TRIPOS>BOND
     1    75    31    1
     2    73    31    1
     3    13    10   ar
     4    31    74    1
     5    31    30    1
     6    11     9   ar
     7    10     9    1
     8    10    14   ar
     9    72    30    1
    10     9    12   ar
    11    30    29    1
    12    30    71    1
    13    37     7    1
    14    69    29    1
    15    63    26    1
    16    66    27    1
    17    36     7    1
    18    29    70    1
    19    29    28    1
    20    64    27    1
    21     7     6    1
    22    27    26    1
    23    27    65    1
    24    39     8    1
    25    26    25    1
    26    26    62    1
    27    60    25    1
    28    59    24    1
    29    68    28    1
    30     6     8    1
    31     6     5    2
    32    28    67    1
    33    28    15    1
    34    25    24    1
    35    25    61    1
    36     8    38    1
    37    24    58    1
    38    24    15    1
    39    34     4    1
    40    49    20    1
    41    35     4    1
    42     4     2    1
    43    15    20    1
    44    15    16    1
    45    20    50    1
    46    20    21    1
    47    53    22    1
    48    52    21    1
    49    21    22    1
    50    21    51    1
    51    40    16    1
    52    22    54    1
    53    22    23    1
    54     2     1    2
    55     2     3    1
    56    16    41    1
    57    16    17    1
    58    56    23    1
    59    33     3    1
    60    23    55    1
    61    23    57    1
    62     3    32    1
    63    43    17    1
    64    17    42    1
    65    17    18    1
    66    47    19    1
    67    48    19    1
    68    19    18    1
    69    19    46    1
    70    18    44    1
    71    18    45    1
