@<TRIPOS>MOLECULE
2,2'-dipyridylamine
 44 46 0 0 0
SMALL
GASTEIGER

@<TRIPOS>ATOM
      1 N          -4.7723    3.7468   10.8134 N.pl3   1  LIG1       -0.2844
      2 H          -5.5831    3.4448   11.1305 H       1  LIG1        0.1550
      3 N          -5.2383    5.4883   12.2166 N.ar    1  LIG1       -0.2402
      4 C          -4.3140    4.8950   11.4438 C.ar    1  LIG1        0.1239
      5 C          -3.0006    5.3691   11.3403 C.ar    1  LIG1       -0.0215
      6 H          -2.3661    4.9333   10.7831 H       1  LIG1        0.0652
      7 C          -2.6553    6.4855   12.0695 C.ar    1  LIG1       -0.0571
      8 H          -1.7721    6.8316   12.0162 H       1  LIG1        0.0619
      9 C          -3.5913    7.1058   12.8797 C.ar    1  LIG1       -0.0435
     10 H          -3.3681    7.8762   13.3885 H       1  LIG1        0.0633
     11 C          -4.8540    6.5672   12.9221 C.ar    1  LIG1        0.0297
     12 H          -5.4965    6.9826   13.4852 H       1  LIG1        0.0830
     13 N          -3.1852    3.4203    9.1194 N.ar    1  LIG1       -0.2402
     14 C          -4.0532    2.8917    9.9844 C.ar    1  LIG1        0.1239
     15 C          -4.2990    1.5139   10.0546 C.ar    1  LIG1       -0.0215
     16 H          -4.9043    1.1621   10.6967 H       1  LIG1        0.0652
     17 C          -3.6475    0.6806    9.1761 C.ar    1  LIG1       -0.0571
     18 H          -3.8111   -0.2554    9.1915 H       1  LIG1        0.0619
     19 C          -2.7489    1.2176    8.2685 C.ar    1  LIG1       -0.0435
     20 H          -2.2897    0.6651    7.6475 H       1  LIG1        0.0633
     21 C          -2.5443    2.5789    8.2944 C.ar    1  LIG1        0.0297
     22 H          -1.9086    2.9453    7.6902 H       1  LIG1        0.0830
     23 N          -1.9680    5.8554    7.8509 N.pl3   2  LIG2       -0.2844
     24 H          -2.3279    5.2965    8.4163 H       2  LIG2        0.1550
     25 N          -0.2310    5.5502    9.2763 N.ar    2  LIG2       -0.2402
     26 C          -0.6566    6.1726    8.1663 C.ar    2  LIG2        0.1239
     27 C           0.1472    7.0723    7.4571 C.ar    2  LIG2       -0.0215
     28 H          -0.1803    7.5155    6.6833 H       2  LIG2        0.0652
     29 C           1.4321    7.2968    7.9154 C.ar    2  LIG2       -0.0571
     30 H           2.0011    7.9023    7.4549 H       2  LIG2        0.0619
     31 C           1.8891    6.6414    9.0423 C.ar    2  LIG2       -0.0435
     32 H           2.7725    6.7761    9.3646 H       2  LIG2        0.0633
     33 C           1.0224    5.7894    9.6803 C.ar    2  LIG2        0.0297
     34 H           1.3321    5.3406   10.4584 H       2  LIG2        0.0830
     35 N          -2.1751    6.7834    5.7081 N.ar    2  LIG2       -0.2402
     36 C          -2.7410    6.1779    6.7497 C.ar    2  LIG2        0.1239
     37 C          -4.1058    5.8514    6.7931 C.ar    2  LIG2       -0.0215
     38 H          -4.4735    5.4009    7.5445 H       2  LIG2        0.0652
     39 C          -4.8937    6.1950    5.7310 C.ar    2  LIG2       -0.0571
     40 H          -5.8206    5.9869    5.7345 H       2  LIG2        0.0619
     41 C          -4.3266    6.8487    4.6474 C.ar    2  LIG2       -0.0435
     42 H          -4.8570    7.1139    3.9053 H       2  LIG2        0.0633
     43 C          -2.9823    7.1017    4.6777 C.ar    2  LIG2        0.0297
     44 H          -2.5935    7.5285    3.9234 H       2  LIG2        0.0830
@<TRIPOS>BOND
     1    42    41    1
     2    44    43    1
     3    41    43   ar
     4    41    39   ar
     5    43    35   ar
     6    35    36   ar
     7    39    40    1
     8    39    37   ar
     9    28    27    1
    10    36    37   ar
    11    36    23    1
    12    37    38    1
    13    30    29    1
    14    27    29   ar
    15    27    26   ar
    16    20    19    1
    17    22    21    1
    18    23    26    1
    19    23    24    1
    20    29    31   ar
    21    26    25   ar
    22    19    21   ar
    23    19    17   ar
    24    21    13   ar
    25    31    32    1
    26    31    33   ar
    27    13    14   ar
    28    17    18    1
    29    17    15   ar
    30    25    33   ar
    31    33    34    1
    32    14    15   ar
    33    14     1    1
    34    15    16    1
    35     6     5    1
    36     1     2    1
    37     1     4    1
    38     5     4   ar
    39     5     7   ar
    40     4     3   ar
    41     8     7    1
    42     7     9   ar
    43     3    11   ar
    44     9    11   ar
    45     9    10    1
    46    11    12    1
