@<TRIPOS>MOLECULE
2101247.cif
 47 50 0 0 0
SMALL
GASTEIGER

@<TRIPOS>ATOM
      1 F           9.1569    6.5702    4.7992 F       1  LIG1       -0.2055
      2 O           4.5723    2.6820    6.2742 O.3     1  LIG1       -0.4599
      3 O           0.8321    1.1660    8.7374 O.3     1  LIG1       -0.4927
      4 O           0.4314    1.8189    4.0577 O.3     1  LIG1       -0.4949
      5 N           6.6144    2.4856    7.3875 N.pl3   1  LIG1       -0.2902
      6 N           3.4033    1.9628    8.7454 N.2     1  LIG1       -0.2468
      7 C           8.5769    5.5010    5.4371 C.ar    1  LIG1        0.1238
      8 C           7.3756    5.7389    6.0979 C.ar    1  LIG1       -0.0208
      9 C           6.7831    4.6586    6.7131 C.ar    1  LIG1       -0.0121
     10 C           7.3837    3.4013    6.6767 C.ar    1  LIG1        0.0367
     11 C           8.5970    3.2007    6.0206 C.ar    1  LIG1       -0.0376
     12 C           9.1827    4.2796    5.3894 C.ar    1  LIG1       -0.0247
     13 C           5.5156    4.5701    7.5251 C.3     1  LIG1        0.0544
     14 C           4.3341    5.3530    6.9372 C.3     1  LIG1       -0.0500
     15 C           5.7926    5.0625    8.9535 C.3     1  LIG1       -0.0500
     16 C           5.2755    3.0251    7.5035 C.3     1  LIG1        0.2238
     17 C           6.7922    1.0595    7.1760 C.3     1  LIG1        0.0046
     18 C           4.5771    2.4566    8.7079 C.2     1  LIG1        0.0689
     19 C           2.6774    1.9489    7.5433 C.ar    1  LIG1        0.1469
     20 C           3.2590    2.3210    6.3299 C.ar    1  LIG1        0.1561
     21 C           2.5567    2.3058    5.1312 C.ar    1  LIG1        0.0242
     22 C           1.2403    1.8784    5.1551 C.ar    1  LIG1        0.1272
     23 C           0.6382    1.4620    6.3458 C.ar    1  LIG1        0.0241
     24 C           1.3475    1.5077    7.5285 C.ar    1  LIG1        0.1524
     25 C          -0.5233    0.7386    8.7761 C.3     1  LIG1        0.0789
     26 C           0.9697    2.2560    2.8204 C.3     1  LIG1        0.0788
     27 H           6.9544    6.5979    6.1184 H       1  LIG1        0.0650
     28 H           9.0623    2.3099    6.0046 H       1  LIG1        0.0637
     29 H          10.0832    4.0389    4.7650 H       1  LIG1        0.0647
     30 H           4.5638    6.3766    6.9372 H       1  LIG1        0.0240
     31 H           4.2267    5.1248    5.9364 H       1  LIG1        0.0240
     32 H           3.5224    5.1178    7.5740 H       1  LIG1        0.0240
     33 H           6.5811    4.5770    9.3822 H       1  LIG1        0.0240
     34 H           6.0817    6.0308    8.9046 H       1  LIG1        0.0240
     35 H           4.9642    4.9242    9.5869 H       1  LIG1        0.0240
     36 H           7.7451    0.7746    7.4489 H       1  LIG1        0.0429
     37 H           6.0857    0.5671    7.7787 H       1  LIG1        0.0429
     38 H           6.5223    0.7884    6.1638 H       1  LIG1        0.0429
     39 H           5.1614    2.4483    9.4277 H       1  LIG1        0.0841
     40 H           3.0140    2.5672    4.3670 H       1  LIG1        0.0692
     41 H          -0.2409    1.1896    6.2321 H       1  LIG1        0.0692
     42 H          -0.7400    0.6086    9.7120 H       1  LIG1        0.0660
     43 H          -1.1765    1.3279    8.3928 H       1  LIG1        0.0660
     44 H          -0.4298   -0.0553    8.2450 H       1  LIG1        0.0660
     45 H           0.1731    2.2408    2.1949 H       1  LIG1        0.0660
     46 H           1.2465    3.1122    2.8204 H       1  LIG1        0.0660
     47 H           1.7389    1.6737    2.5360 H       1  LIG1        0.0660
@<TRIPOS>BOND
     1    45    26    1
     2    47    26    1
     3    46    26    1
     4    26     4    1
     5     4    22    1
     6    40    21    1
     7    29    12    1
     8     1     7    1
     9    21    22   ar
    10    21    20   ar
    11    22    23   ar
    12    12     7   ar
    13    12    11   ar
    14     7     8   ar
    15    31    14    1
    16    28    11    1
    17    11    10   ar
    18     8    27    1
    19     8     9   ar
    20    38    17    1
    21    41    23    1
    22     2    20    1
    23     2    16    1
    24    20    19   ar
    25    23    24   ar
    26    10     9   ar
    27    10     5    1
    28     9    13    1
    29    14    30    1
    30    14    13    1
    31    14    32    1
    32    17     5    1
    33    17    36    1
    34    17    37    1
    35     5    16    1
    36    16    13    1
    37    16    18    1
    38    13    15    1
    39    24    19   ar
    40    24     3    1
    41    19     6    1
    42    44    25    1
    43    43    25    1
    44    18     6    2
    45    18    39    1
    46     3    25    1
    47    25    42    1
    48    34    15    1
    49    15    33    1
    50    15    35    1
