@<TRIPOS>MOLECULE
(R)-(+)-3-hydroxy-3-(3'-chloro)phenylpropionic acid
 22 22 0 0 0
SMALL
GASTEIGER

@<TRIPOS>ATOM
      1 CL          2.4509    0.9329   22.8127 Cl      1  LIG1       -0.0835
      2 O           7.8768    5.5492   26.2442 O.3     1  LIG1       -0.4805
      3 H           8.2617    5.7623   26.9871 H       1  LIG1        0.2951
      4 O           6.0628    6.0924   27.4148 O.2     1  LIG1       -0.2509
      5 O           6.4272    2.8343   25.6082 O.3     1  LIG1       -0.3866
      6 H           7.2311    2.7972   25.9429 H       1  LIG1        0.2102
      7 C           6.5655    5.6454   26.4006 C.2     1  LIG1        0.3075
      8 C           5.7923    5.1496   25.2122 C.3     1  LIG1        0.0748
      9 H           5.8248    5.8376   24.5713 H       1  LIG1        0.0406
     10 H           4.8170    4.9863   25.5154 H       1  LIG1        0.0406
     11 C           6.3753    3.8628   24.6079 C.3     1  LIG1        0.0903
     12 H           7.3108    4.0539   24.2602 H       1  LIG1        0.0649
     13 C           5.5053    3.4140   23.4495 C.ar    1  LIG1       -0.0173
     14 C           4.4890    2.4845   23.6413 C.ar    1  LIG1       -0.0377
     15 H           4.3273    2.1138   24.5145 H       1  LIG1        0.0636
     16 C           3.6913    2.1306   22.5641 C.ar    1  LIG1        0.0413
     17 C           3.8513    2.6895   21.3064 C.ar    1  LIG1       -0.0434
     18 H           3.3138    2.4323   20.5947 H       1  LIG1        0.0632
     19 C           4.8642    3.6225   21.1290 C.ar    1  LIG1       -0.0600
     20 H           4.9992    3.9902   20.2809 H       1  LIG1        0.0618
     21 C           5.6949    3.9728   22.1829 C.ar    1  LIG1       -0.0560
     22 H           6.4226    4.6157   22.0582 H       1  LIG1        0.0621
@<TRIPOS>BOND
     1    20    19    1
     2    18    17    1
     3    19    17   ar
     4    19    21   ar
     5    17    16   ar
     6    22    21    1
     7    21    13   ar
     8    16     1    1
     9    16    14   ar
    10    13    14   ar
    11    13    11    1
    12    14    15    1
    13    12    11    1
    14     9     8    1
    15    11     8    1
    16    11     5    1
    17     8    10    1
    18     8     7    1
    19     5     6    1
    20     2     7    1
    21     2     3    1
    22     7     4    2
