@<TRIPOS>MOLECULE
2101465.cif
 19 17 0 0 0
SMALL
GASTEIGER

@<TRIPOS>ATOM
      1 O           2.1554    0.2356    1.1717 O.2     1  LIG1       -0.2510
      2 O           0.0412    0.8578    0.9092 O.3     1  LIG1       -0.4806
      3 O           2.3822    3.6084    0.7950 O.3     1  LIG1       -0.4806
      4 O           1.0053    5.3089    1.1972 O.2     1  LIG1       -0.2510
      5 N           1.2290    7.1080   -1.0584 N.4     2  LIG2        0.2099
      6 C           1.1900    0.9329    1.4923 C.2     1  LIG1        0.3052
      7 C           1.2691    1.9096    2.6366 C.3     1  LIG1        0.0548
      8 C           0.6426    3.2671    2.3666 C.3     1  LIG1        0.0548
      9 C           1.3806    4.1429    1.3889 C.2     1  LIG1        0.3052
     10 H           0.0246    0.2614    0.2880 H       1  LIG1        0.2951
     11 H           2.2037    2.0015    2.8986 H       1  LIG1        0.0383
     12 H           0.7755    1.4959    3.3849 H       1  LIG1        0.0383
     13 H          -0.2720    3.1665    2.0253 H       1  LIG1        0.0383
     14 H           0.5262    3.7996    3.2291 H       1  LIG1        0.0383
     15 H           2.7616    4.0998    0.2360 H       1  LIG1        0.2951
     16 H           1.0672    6.6155   -1.8364 H       1  LIG1        0.1975
     17 H           0.5456    7.5975   -0.8781 H       1  LIG1        0.1975
     18 H           1.9910    7.6659   -1.0952 H       1  LIG1        0.1975
     19 H           1.2954    6.4868   -0.3257 H       1  LIG1        0.1975
@<TRIPOS>BOND
     1    16     5    1
     2    18     5    1
     3     5    17    1
     4     5    19    1
     5    15     3    1
     6    10     2    1
     7     3     9    1
     8     2     6    1
     9     1     6    2
    10     4     9    2
    11     9     8    1
    12     6     7    1
    13    13     8    1
    14     8     7    1
    15     8    14    1
    16     7    11    1
    17     7    12    1
