@<TRIPOS>MOLECULE
N-isonicotinoyl 2-chlorobenzaldehydehydrazone
 28 29 0 0 0
SMALL
GASTEIGER

@<TRIPOS>ATOM
      1 N          -2.8762    1.1388   15.0282 N.ar    1  LIG1       -0.2632
      2 C          -2.0801    2.0612   14.4732 C.ar    1  LIG1        0.0283
      3 C          -0.7060    2.0706   14.6023 C.ar    1  LIG1       -0.0314
      4 C          -0.0960    1.0729   15.3559 C.ar    1  LIG1        0.0412
      5 C          -0.9043    0.1129   15.9453 C.ar    1  LIG1       -0.0314
      6 C          -2.2779    0.1821   15.7519 C.ar    1  LIG1        0.0283
      7 C           1.3834    1.0306   15.6242 C.2     1  LIG1        0.2634
      8 O           1.8109    0.7311   16.7368 O.2     1  LIG1       -0.2684
      9 N           2.2344    1.3401   14.6174 N.am    1  LIG1       -0.2030
     10 N           1.7947    1.4288   13.3173 N.2     1  LIG1       -0.1874
     11 C           2.7060    1.5822   12.4325 C.2     1  LIG1        0.0542
     12 C           2.3359    1.6662   11.0209 C.ar    1  LIG1        0.0128
     13 C           3.2938    1.7858   10.0021 C.ar    1  LIG1        0.0496
     14 CL          4.9945    1.8533   10.4035 Cl      1  LIG1       -0.0829
     15 C           2.9421    1.8523    8.6652 C.ar    1  LIG1       -0.0428
     16 C           1.6101    1.7918    8.3033 C.ar    1  LIG1       -0.0603
     17 C           0.6321    1.6500    9.2850 C.ar    1  LIG1       -0.0611
     18 C           0.9916    1.5943   10.6198 C.ar    1  LIG1       -0.0517
     19 H          -2.4854    2.7505   13.9603 H       1  LIG1        0.0830
     20 H          -0.1855    2.7458   14.1833 H       1  LIG1        0.0640
     21 H          -0.5250   -0.5805   16.4733 H       1  LIG1        0.0640
     22 H          -2.8224   -0.4844   16.1544 H       1  LIG1        0.0830
     23 H           3.0928    1.2422   14.7853 H       1  LIG1        0.1776
     24 H           3.6177    1.6406   12.6916 H       1  LIG1        0.0852
     25 H           3.6141    1.9396    7.9980 H       1  LIG1        0.0632
     26 H           1.3617    1.8469    7.3871 H       1  LIG1        0.0618
     27 H          -0.2829    1.5916    9.0371 H       1  LIG1        0.0618
     28 H           0.3140    1.5056   11.2802 H       1  LIG1        0.0624
@<TRIPOS>BOND
     1    26    16    1
     2    25    15    1
     3    16    15   ar
     4    16    17   ar
     5    15    13   ar
     6    27    17    1
     7    17    18   ar
     8    13    14    1
     9    13    12   ar
    10    18    12   ar
    11    18    28    1
    12    12    11    1
    13    11    24    1
    14    11    10    2
    15    10     9    1
    16    19     2    1
    17    20     3    1
    18     2     3   ar
    19     2     1   ar
    20     3     4   ar
    21     9    23    1
    22     9     7   am
    23     1     6   ar
    24     4     7    1
    25     4     5   ar
    26     7     8    2
    27     6     5   ar
    28     6    22    1
    29     5    21    1
