@<TRIPOS>MOLECULE
?
 27 28 0 0 0
SMALL
GASTEIGER

@<TRIPOS>ATOM
      1 I          -2.2403   16.8903    8.9355 I       1  LIG1       -0.0438
      2 CL         -5.4220   18.7249    1.9642 Cl      1  LIG1       -0.0835
      3 N          -6.5727   13.3655    6.0571 N.pl3   1  LIG1       -0.2163
      4 H          -6.1951   12.6571    5.6645 H       1  LIG1        0.1737
      5 S          -7.8431   14.0245    5.2803 S.O2    1  LIG1        0.0723
      6 O          -8.3073   12.9801    4.3974 O.2     1  LIG1       -0.1500
      7 O          -8.7697   14.5787    6.2130 O.2     1  LIG1       -0.1500
      8 C          -7.1799   15.3524    4.3244 C.ar    1  LIG1        0.1086
      9 C          -7.7730   16.6079    4.3857 C.ar    1  LIG1       -0.0337
     10 H          -8.5341   16.7517    4.9341 H       1  LIG1        0.0638
     11 C          -7.2378   17.6492    3.6364 C.ar    1  LIG1       -0.0415
     12 H          -7.6344   18.5124    3.6607 H       1  LIG1        0.0633
     13 C          -6.1263   17.4119    2.8592 C.ar    1  LIG1        0.0411
     14 C          -5.5314   16.1633    2.7917 C.ar    1  LIG1       -0.0415
     15 H          -4.7670   16.0219    2.2442 H       1  LIG1        0.0633
     16 C          -6.0644   15.1293    3.5293 C.ar    1  LIG1       -0.0337
     17 H          -5.6695   14.2661    3.4932 H       1  LIG1        0.0638
     18 C          -5.6048   14.1695    6.7316 C.ar    1  LIG1        0.0481
     19 C          -5.9889   15.2317    7.5376 C.ar    1  LIG1       -0.0383
     20 H          -6.9099   15.4222    7.6673 H       1  LIG1        0.0637
     21 C          -5.0274   16.0092    8.1518 C.ar    1  LIG1       -0.0468
     22 H          -5.2829   16.7469    8.6921 H       1  LIG1        0.0628
     23 C          -3.6847   15.7076    7.9780 C.ar    1  LIG1        0.0135
     24 C          -3.2921   14.6283    7.1918 C.ar    1  LIG1       -0.0468
     25 H          -2.3710   14.4154    7.0918 H       1  LIG1        0.0628
     26 C          -4.2589   13.8663    6.5569 C.ar    1  LIG1       -0.0383
     27 H          -4.0035   13.1389    6.0031 H       1  LIG1        0.0637
@<TRIPOS>BOND
     1     2    13    1
     2    15    14    1
     3    14    13   ar
     4    14    16   ar
     5    13    11   ar
     6    17    16    1
     7    16     8   ar
     8    11    12    1
     9    11     9   ar
    10     8     9   ar
    11     8     5    1
    12     9    10    1
    13     6     5    2
    14     5     3    1
    15     5     7    2
    16     4     3    1
    17    27    26    1
    18     3    18    1
    19    26    18   ar
    20    26    24   ar
    21    18    19   ar
    22    25    24    1
    23    24    23   ar
    24    19    20    1
    25    19    21   ar
    26    23    21   ar
    27    23     1    1
    28    21    22    1
