@<TRIPOS>MOLECULE
N-(6-Amino-3,4-dihydro-3-methyl-5-nitroso-4-oxopyrimidin-2-yl)  Threonine
 32 32 0 0 0
SMALL
GASTEIGER

@<TRIPOS>ATOM
      1 N           2.3761    1.5522    7.4888 N.2     0  UNK0       -0.0289
      2 C           3.6540    1.1604    7.5275 C.3     0  UNK0        0.3592
      3 N           4.3864    1.3415    6.4283 N.3     1  THR1       -0.2343
      4 H           5.2743    1.0712    6.4070 H       1  THR1        0.1290
      5 CA          3.8643    2.0465    5.2606 C.3     1  THR1        0.1363
      6 HA          2.8926    2.1210    5.3684 H       1  THR1        0.0604
      7 C           4.1301    1.2684    3.9732 C.2     1  THR1        0.3246
      8 O           3.6394    1.8433    2.9376 O.3     1  THR1       -0.4795
      9 H           3.9890    1.5361    2.2628 H       1  THR1        0.2951
     10 OXT         4.7525    0.1999    3.9694 O.2     1  THR1       -0.2491
     11 CB          4.4316    3.4726    5.1383 C.3     1  THR1        0.0782
     12 HB          3.9392    3.9267    4.4230 H       1  THR1        0.0611
     13 CG2         4.2496    4.2855    6.4101 C.3     1  THR1       -0.0369
     14 HG21        4.7782    3.9019    7.1140 H       1  THR1        0.0255
     15 HG22        3.3235    4.2788    6.6651 H       1  THR1        0.0255
     16 HG23        4.5314    5.1897    6.2557 H       1  THR1        0.0255
     17 OG1         5.8018    3.4028    4.7418 O.3     1  THR1       -0.3900
     18 HG1         6.2815    3.4632    5.4036 H       1  THR1        0.2098
     19 N           4.2492    0.5742    8.6174 N.am    0  UNK0       -0.2353
     20 C           5.6961    0.3468    8.6367 C.3     0  UNK0        0.0092
     21 H           5.9135   -0.3783    8.0458 H       0  UNK0        0.0430
     22 H           5.9731    0.1268    9.5292 H       0  UNK0        0.0430
     23 H           6.1484    1.1423    8.3475 H       0  UNK0        0.0430
     24 C           3.5516    0.3689    9.8142 C.2     0  UNK0        0.2806
     25 O           4.0903   -0.1570   10.7631 O.2     0  UNK0       -0.2677
     26 C           2.1540    0.8525    9.8142 C.2     0  UNK0        0.2582
     27 N           1.5680    0.8116   10.9909 N.2     0  UNK0       -0.0171
     28 O           0.3308    1.2865   11.0412 O.2     0  UNK0       -0.1428
     29 C           1.6257    1.4261    8.5828 C.2     0  UNK0        0.3420
     30 N           0.3870    1.8507    8.5249 N.pl3   0  UNK0       -0.2449
     31 H           0.0841    2.1968    7.7981 H       0  UNK0        0.2885
     32 H          -0.1230    1.7836    9.2140 H       0  UNK0        0.2885
@<TRIPOS>BOND
     1     9     8    1
     2     8     7    1
     3    10     7    2
     4     7     5    1
     5    12    11    1
     6    17    11    1
     7    17    18    1
     8    11     5    1
     9    11    13    1
    10     5     6    1
    11     5     3    1
    12    16    13    1
    13     4     3    1
    14    13    15    1
    15    13    14    1
    16     3     2    1
    17     1     2    1
    18     1    29    2
    19     2    19    1
    20    31    30    1
    21    21    20    1
    22    23    20    1
    23    30    29    1
    24    30    32    1
    25    29    26    1
    26    19    20    1
    27    19    24   am
    28    20    22    1
    29    24    26    1
    30    24    25    2
    31    26    27    2
    32    27    28    1
