@<TRIPOS>MOLECULE
?
 21 21 0 0 0
SMALL
GASTEIGER

@<TRIPOS>ATOM
      1 C           7.5788    1.2400    5.5840 C.ar    1  LIG1       -0.0179
      2 C           6.4559    1.3895    4.7755 C.ar    1  LIG1        0.1614
      3 C           6.5202    1.3835    3.4009 C.ar    1  LIG1        0.1865
      4 C           7.7482    1.2686    2.7897 C.ar    1  LIG1        0.1585
      5 C           8.8829    1.1325    3.5608 C.ar    1  LIG1       -0.0288
      6 H           9.7144    1.0523    3.1522 H       1  LIG1        0.0641
      7 C           8.7867    1.1146    4.9260 C.ar    1  LIG1       -0.0544
      8 H           9.5627    1.0139    5.4281 H       1  LIG1        0.0622
      9 C           7.5128    1.1625    7.0787 C.3     1  LIG1       -0.0375
     10 H           6.6028    1.2698    7.3648 H       1  LIG1        0.0278
     11 H           8.0517    1.8594    7.4599 H       1  LIG1        0.0278
     12 H           7.8407    0.3084    7.3695 H       1  LIG1        0.0278
     13 N           5.1365    1.5069    5.4055 N.pl3   1  LIG1        0.0590
     14 O           4.9603    2.4374    6.1618 O.2     1  LIG1       -0.1261
     15 O           4.3062    0.6587    5.1147 O.2     1  LIG1       -0.1261
     16 N           5.2593    1.4476    2.6330 N.pl3   1  LIG1        0.0610
     17 O           4.5849    2.4470    2.7632 O.2     1  LIG1       -0.1260
     18 O           4.9686    0.4828    1.9710 O.2     1  LIG1       -0.1260
     19 N           7.8779    1.3398    1.3270 N.pl3   1  LIG1        0.0588
     20 O           7.0313    1.9703    0.7165 O.2     1  LIG1       -0.1261
     21 O           8.8350    0.7767    0.8335 O.2     1  LIG1       -0.1261
@<TRIPOS>BOND
     1    20    19    2
     2    21    19    2
     3    19     4    1
     4    18    16    2
     5    16    17    2
     6    16     3    1
     7     4     3   ar
     8     4     5   ar
     9     6     5    1
    10     3     2   ar
    11     5     7   ar
    12     2    13    1
    13     2     1   ar
    14     7     8    1
    15     7     1   ar
    16    15    13    2
    17    13    14    2
    18     1     9    1
    19     9    10    1
    20     9    12    1
    21     9    11    1
