@<TRIPOS>MOLECULE
N-isonicotinoyl 2-methoxybenzaldehydehydrazone
 64 66 0 0 0
SMALL
GASTEIGER

@<TRIPOS>ATOM
      1 N           1.3109    7.2803    8.5919 N.ar    1  LIG1       -0.2632
      2 C           2.2309    6.4995    8.0127 C.ar    1  LIG1        0.0283
      3 C           3.1274    6.9341    7.0513 C.ar    1  LIG1       -0.0314
      4 C           3.0979    8.2715    6.6827 C.ar    1  LIG1        0.0408
      5 C           2.1585    9.0998    7.2746 C.ar    1  LIG1       -0.0314
      6 C           1.2919    8.5590    8.1991 C.ar    1  LIG1        0.0283
      7 C           4.0582    8.8742    5.7093 C.2     1  LIG1        0.2589
      8 O           4.5321    9.9966    5.9089 O.2     1  LIG1       -0.2688
      9 N           4.3227    8.1138    4.6412 N.am    1  LIG1       -0.2288
     10 N           5.1996    8.5525    3.6575 N.3     1  LIG1       -0.1324
     11 C           5.3390    7.7177    2.6936 C.3     1  LIG1        0.0965
     12 C           6.2245    7.9949    1.5660 C.ar    1  LIG1        0.0164
     13 C           6.3943    7.0116    0.5747 C.ar    1  LIG1        0.1249
     14 O           5.7274    5.8389    0.7790 O.3     1  LIG1       -0.4948
     15 C           5.8538    4.8072   -0.2125 C.3     1  LIG1        0.0788
     16 C           7.2202    7.2541   -0.5199 C.ar    1  LIG1       -0.0196
     17 C           7.8629    8.4669   -0.6293 C.ar    1  LIG1       -0.0583
     18 C           7.7115    9.4501    0.3347 C.ar    1  LIG1       -0.0612
     19 C           6.8926    9.2058    1.4232 C.ar    1  LIG1       -0.0534
     20 N          -0.9563    3.5491    1.3280 N.ar    2  LIG2       -0.2632
     21 C           0.1984    2.8784    1.4222 C.ar    2  LIG2        0.0283
     22 C           1.2861    3.2963    2.1676 C.ar    2  LIG2       -0.0314
     23 C           1.1981    4.4983    2.8548 C.ar    2  LIG2        0.0408
     24 C           0.0079    5.2066    2.7688 C.ar    2  LIG2       -0.0314
     25 C          -1.0304    4.6947    2.0148 C.ar    2  LIG2        0.0283
     26 C           2.3214    5.1095    3.6386 C.2     2  LIG2        0.2589
     27 O           2.2679    6.2918    3.9835 O.2     2  LIG2       -0.2688
     28 N           3.3664    4.3111    3.9261 N.am    2  LIG2       -0.2288
     29 N           4.5025    4.8784    4.4884 N.3     2  LIG2       -0.1324
     30 C           5.4622    4.0469    4.6716 C.3     2  LIG2        0.0965
     31 C           6.7669    4.4756    5.1733 C.ar    2  LIG2        0.0164
     32 C           7.7874    3.5178    5.3056 C.ar    2  LIG2        0.1249
     33 O           7.4483    2.2381    4.9596 O.3     2  LIG2       -0.4948
     34 C           8.4938    1.2736    4.8452 C.3     2  LIG2        0.0788
     35 C           9.0440    3.8921    5.7591 C.ar    2  LIG2       -0.0196
     36 C           9.2950    5.2180    6.0657 C.ar    2  LIG2       -0.0583
     37 C           8.3112    6.1755    5.9224 C.ar    2  LIG2       -0.0612
     38 C           7.0560    5.8044    5.4818 C.ar    2  LIG2       -0.0534
     39 H           2.2709    5.5888    8.2787 H       1  LIG1        0.0830
     40 H           3.7460    6.3323    6.6544 H       1  LIG1        0.0640
     41 H           2.1126   10.0213    7.0483 H       1  LIG1        0.0640
     42 H           0.6380    9.1322    8.5830 H       1  LIG1        0.0830
     43 H           3.9367    7.3273    4.5602 H       1  LIG1        0.1709
     44 H           4.8547    6.9002    2.7128 H       1  LIG1        0.0565
     45 H           5.5427    5.1459   -1.0784 H       1  LIG1        0.0660
     46 H           5.3124    4.0338    0.0507 H       1  LIG1        0.0660
     47 H           6.7930    4.5384   -0.2856 H       1  LIG1        0.0660
     48 H           7.3396    6.5870   -1.1865 H       1  LIG1        0.0654
     49 H           8.4205    8.6324   -1.3809 H       1  LIG1        0.0619
     50 H           8.1640   10.2807    0.2502 H       1  LIG1        0.0618
     51 H           6.7847    9.8789    2.0857 H       1  LIG1        0.0622
     52 H           0.2756    2.0612    0.9448 H       2  LIG2        0.0830
     53 H           2.0765    2.7715    2.2074 H       2  LIG2        0.0640
     54 H          -0.0918    6.0349    3.2233 H       2  LIG2        0.0640
     55 H          -1.8440    5.1854    1.9826 H       2  LIG2        0.0830
     56 H           3.3301    3.4469    3.7608 H       2  LIG2        0.1709
     57 H           5.3212    3.1274    4.4757 H       2  LIG2        0.0565
     58 H           9.1725    1.5993    4.2171 H       2  LIG2        0.0660
     59 H           8.1238    0.4287    4.5163 H       2  LIG2        0.0660
     60 H           8.9041    1.1295    5.7231 H       2  LIG2        0.0660
     61 H           9.7286    3.2413    5.8583 H       2  LIG2        0.0654
     62 H          10.1550    5.4718    6.3789 H       2  LIG2        0.0619
     63 H           8.4970    7.0853    6.1254 H       2  LIG2        0.0618
     64 H           6.3794    6.4636    5.3868 H       2  LIG2        0.0622
@<TRIPOS>BOND
     1    49    17    1
     2    48    16    1
     3    45    15    1
     4    17    16   ar
     5    17    18   ar
     6    16    13   ar
     7    47    15    1
     8    15    46    1
     9    15    14    1
    10    50    18    1
    11    18    19   ar
    12    13    14    1
    13    13    12   ar
    14    52    21    1
    15    20    21   ar
    16    20    25   ar
    17    21    22   ar
    18    19    12   ar
    19    19    51    1
    20    12    11    1
    21    55    25    1
    22    25    24   ar
    23    22    53    1
    24    22    23   ar
    25    11    44    1
    26    11    10    1
    27    24    23   ar
    28    24    54    1
    29    23    26    1
    30    26    28   am
    31    26    27    2
    32    10     9    1
    33    56    28    1
    34    28    29    1
    35    58    34    1
    36    57    30    1
    37    29    30    1
    38    59    34    1
    39    43     9    1
    40     9     7   am
    41    30    31    1
    42    34    33    1
    43    34    60    1
    44    33    32    1
    45    31    32   ar
    46    31    38   ar
    47    32    35   ar
    48    64    38    1
    49    38    37   ar
    50     7     8    2
    51     7     4    1
    52    35    61    1
    53    35    36   ar
    54    37    36   ar
    55    37    63    1
    56    36    62    1
    57    40     3    1
    58     4     3   ar
    59     4     5   ar
    60    41     5    1
    61     3     2   ar
    62     5     6   ar
    63     2    39    1
    64     2     1   ar
    65     6    42    1
    66     6     1   ar
