@<TRIPOS>MOLECULE
?
 49 49 0 0 0
SMALL
GASTEIGER

@<TRIPOS>ATOM
      1 O          24.1389    7.8909    6.2286 O.3     1  LIG1       -0.3914
      2 H          24.1509    7.9877    7.0429 H       1  LIG1        0.2098
      3 C          21.7553   10.6021    5.1238 C.3     1  LIG1       -0.0076
      4 C          22.9385    9.9332    5.8354 C.3     1  LIG1       -0.0174
      5 H          23.7661   10.2785    5.4681 H       1  LIG1        0.0298
      6 H          22.9148   10.1625    6.7777 H       1  LIG1        0.0298
      7 C          22.9232    8.4457    5.6934 C.3     1  LIG1        0.0597
      8 H          22.8738    8.2249    4.7402 H       1  LIG1        0.0596
      9 C          21.6981    7.8907    6.3766 C.3     1  LIG1       -0.0053
     10 H          21.8234    7.9336    7.3377 H       1  LIG1        0.0335
     11 H          21.5939    6.9582    6.1320 H       1  LIG1        0.0335
     12 C          20.4366    8.6419    6.0093 C.2     1  LIG1       -0.0665
     13 C          20.4638    9.8395    5.4210 C.2     1  LIG1       -0.0426
     14 C          19.2163   10.5378    4.9945 C.2     1  LIG1       -0.0579
     15 H          18.9203   11.2553    5.5073 H       1  LIG1        0.0621
     16 C          18.4985   10.2002    3.9295 C.2     1  LIG1       -0.0586
     17 H          18.7750    9.4416    3.4692 H       1  LIG1        0.0620
     18 C          17.3318   10.8788    3.4021 C.2     1  LIG1       -0.0504
     19 C          16.7698   10.4092    2.2635 C.2     1  LIG1       -0.0588
     20 H          17.1785    9.6604    1.8920 H       1  LIG1        0.0620
     21 C          15.6326   10.9104    1.5543 C.2     1  LIG1       -0.0613
     22 H          15.1496   11.6164    1.9228 H       1  LIG1        0.0618
     23 C          15.2314   10.3981    0.3715 C.2     1  LIG1       -0.0591
     24 H          15.7427    9.6973    0.0350 H       1  LIG1        0.0620
     25 C          14.1079   10.8064   -0.4313 C.2     1  LIG1       -0.0541
     26 C          13.8419   10.1173   -1.5712 C.2     1  LIG1       -0.0769
     27 H          14.4534    9.4508   -1.7893 H       1  LIG1        0.0578
     28 C          12.7524   10.2756   -2.4797 C.3     1  LIG1       -0.0087
     29 H          12.1447   10.9600   -2.3154 H       1  LIG1        0.0355
     30 C          21.9871   10.6621    3.6118 C.3     1  LIG1       -0.0557
     31 H          21.2111   11.0312    3.1835 H       1  LIG1        0.0238
     32 H          22.1476    9.7763    3.2771 H       1  LIG1        0.0238
     33 H          22.7469   11.2157    3.4269 H       1  LIG1        0.0238
     34 C          21.6576   12.0320    5.6614 C.3     1  LIG1       -0.0557
     35 H          21.4046   12.0092    6.5874 H       1  LIG1        0.0238
     36 H          20.9984   12.5180    5.1618 H       1  LIG1        0.0238
     37 H          22.5113   12.4666    5.5726 H       1  LIG1        0.0238
     38 C          19.1637    7.9491    6.4177 C.3     1  LIG1       -0.0431
     39 H          18.4128    8.5176    6.2244 H       1  LIG1        0.0275
     40 H          19.1893    7.7610    7.3588 H       1  LIG1        0.0275
     41 H          19.0763    7.1270    5.9296 H       1  LIG1        0.0275
     42 C          16.8432   12.0916    4.1192 C.3     1  LIG1       -0.0397
     43 H          16.0295   12.4007    3.7096 H       1  LIG1        0.0278
     44 H          17.5066   12.7816    4.0709 H       1  LIG1        0.0278
     45 H          16.6767   11.8734    5.0386 H       1  LIG1        0.0278
     46 C          13.2873   11.9691    0.0381 C.3     1  LIG1       -0.0400
     47 H          12.5930   12.1476   -0.5986 H       1  LIG1        0.0277
     48 H          13.8483   12.7434    0.1244 H       1  LIG1        0.0277
     49 H          12.8950   11.7614    0.8898 H       1  LIG1        0.0277
@<TRIPOS>BOND
     1    28    29    1
     2    28    26    1
     3    27    26    1
     4    26    25    2
     5    47    46    1
     6    25    46    1
     7    25    23    1
     8    24    23    1
     9    46    48    1
    10    46    49    1
    11    23    21    2
    12    21    22    1
    13    21    19    1
    14    20    19    1
    15    19    18    2
    16    31    30    1
    17    32    30    1
    18    18    16    1
    19    18    42    1
    20    33    30    1
    21    17    16    1
    22    30     3    1
    23    43    42    1
    24    16    14    2
    25    44    42    1
    26    42    45    1
    27     8     7    1
    28    14    13    1
    29    14    15    1
    30     3    13    1
    31     3    34    1
    32     3     4    1
    33    36    34    1
    34    13    12    2
    35     5     4    1
    36    37    34    1
    37    34    35    1
    38     7     4    1
    39     7     1    1
    40     7     9    1
    41     4     6    1
    42    41    38    1
    43    12     9    1
    44    12    38    1
    45    11     9    1
    46    39    38    1
    47     1     2    1
    48     9    10    1
    49    38    40    1
