@<TRIPOS>MOLECULE
2103556.cif
 40 42 0 0 0
SMALL
GASTEIGER

@<TRIPOS>ATOM
      1 O           6.0246    3.6112    4.5538 O.3     1  LIG1       -0.3311
      2 O           3.4947    2.4892    4.7105 O.3     1  LIG1       -0.3417
      3 O           3.1613    4.7425    5.1635 O.3     1  LIG1       -0.3137
      4 O           5.3205    5.5247    5.4847 O.3     1  LIG1       -0.3137
      5 O           4.6118    1.9846    8.3553 O.3     1  LIG1       -0.4675
      6 O           5.8139    1.3870    6.5736 O.2     1  LIG1       -0.2501
      7 O           4.8263    4.8402    1.3632 O.3     1  LIG1       -0.3919
      8 C           3.3841    3.4617    5.7319 C.3     1  LIG1        0.1888
      9 C           4.6790    3.5281    6.5931 C.3     1  LIG1        0.1631
     10 C           5.8068    4.2267    5.8185 C.3     1  LIG1        0.1895
     11 C           4.9837    4.0908    3.6818 C.3     1  LIG1        0.1744
     12 C           3.9735    2.9829    3.4371 C.3     1  LIG1        0.0954
     13 C           4.3334    5.2440    4.4972 C.3     1  LIG1        0.2069
     14 C           7.1029    4.3404    6.5676 C.3     1  LIG1       -0.0094
     15 C           5.1075    2.1806    7.1217 C.2     1  LIG1        0.3204
     16 C           4.9690    0.7479    9.0085 C.3     1  LIG1        0.0817
     17 C           2.1568    3.1086    6.5533 C.3     1  LIG1       -0.0094
     18 C           3.9399    6.5171    3.8161 C.3     1  LIG1       -0.0073
     19 C           4.5010    1.7874    2.7055 C.3     1  LIG1       -0.0356
     20 C           5.7346    4.5492    2.4215 C.3     1  LIG1        0.0809
     21 H           4.4797    4.0730    7.3403 H       1  LIG1        0.0521
     22 H           3.1827    3.3826    2.9367 H       1  LIG1        0.0626
     23 H           7.4384    3.4301    6.7226 H       1  LIG1        0.0281
     24 H           6.9469    4.7988    7.4247 H       1  LIG1        0.0281
     25 H           7.7436    4.8662    6.0482 H       1  LIG1        0.0281
     26 H           5.9088    0.6186    9.0052 H       1  LIG1        0.0661
     27 H           4.4490    0.0663    8.7576 H       1  LIG1        0.0661
     28 H           4.8205    0.9169    9.9317 H       1  LIG1        0.0661
     29 H           2.2760    2.1398    6.8013 H       1  LIG1        0.0281
     30 H           1.4122    3.1948    5.9986 H       1  LIG1        0.0281
     31 H           2.1454    3.8377    7.2878 H       1  LIG1        0.0281
     32 H           3.2745    6.3299    3.1333 H       1  LIG1        0.0282
     33 H           3.5225    7.1695    4.4021 H       1  LIG1        0.0282
     34 H           4.7597    6.9707    3.3955 H       1  LIG1        0.0282
     35 H           3.8598    1.0583    2.6483 H       1  LIG1        0.0255
     36 H           5.3246    1.4792    3.1086 H       1  LIG1        0.0255
     37 H           4.7326    2.0835    1.8005 H       1  LIG1        0.0255
     38 H           6.3402    5.3887    2.6322 H       1  LIG1        0.0588
     39 H           6.4007    3.8322    2.2418 H       1  LIG1        0.0588
     40 H           5.0973    5.6119    0.9789 H       1  LIG1        0.2095
@<TRIPOS>BOND
     1    40     7    1
     2     7    20    1
     3    37    19    1
     4    39    20    1
     5    20    38    1
     6    20    11    1
     7    35    19    1
     8    19    36    1
     9    19    12    1
    10    22    12    1
    11    32    18    1
    12    34    18    1
    13    12    11    1
    14    12     2    1
    15    11    13    1
    16    11     1    1
    17    18    33    1
    18    18    13    1
    19    13     3    1
    20    13     4    1
    21     1    10    1
    22     2     8    1
    23     3     8    1
    24     4    10    1
    25     8    17    1
    26     8     9    1
    27    10    14    1
    28    10     9    1
    29    30    17    1
    30    25    14    1
    31    17    29    1
    32    17    31    1
    33    14    23    1
    34    14    24    1
    35     6    15    2
    36     9    15    1
    37     9    21    1
    38    15     5    1
    39     5    16    1
    40    27    16    1
    41    26    16    1
    42    16    28    1
