@<TRIPOS>MOLECULE
N,4-Dinitroaniline-sulpholane complex
 51 51 0 0 0
SMALL
GASTEIGER

@<TRIPOS>ATOM
      1 S           3.5001    0.2892    9.4326 S.O2    1  LIG1       -0.0310
      2 O           2.8776   -0.9492    9.8669 O.2     1  LIG1       -0.1744
      3 O           2.7281    1.4978    9.6247 O.2     1  LIG1       -0.1744
      4 C           5.1054    0.3887   10.1699 C.3     1  LIG1        0.0658
      5 H           5.1234    0.0959   11.0288 H       1  LIG1        0.0500
      6 H           5.4697    1.2763   10.1395 H       1  LIG1        0.0500
      7 C           5.8882   -0.6150    9.3252 C.3     1  LIG1       -0.0321
      8 H           5.6463   -1.5144    9.5264 H       1  LIG1        0.0281
      9 H           6.8527   -0.5174    9.5100 H       1  LIG1        0.0281
     10 C           5.5178   -0.3478    7.8427 C.3     1  LIG1       -0.0321
     11 H           5.6245   -1.1512    7.3677 H       1  LIG1        0.0281
     12 H           6.0972    0.3289    7.5362 H       1  LIG1        0.0281
     13 C           4.0573    0.0959    7.7445 C.3     1  LIG1        0.0658
     14 H           3.9714    0.9336    7.3057 H       1  LIG1        0.0500
     15 H           3.4967   -0.5516    7.2893 H       1  LIG1        0.0500
     16 C           9.4407   -5.0047    7.1665 C.ar    2  LIG2        0.0527
     17 C           8.3581   -4.2550    7.6345 C.ar    2  LIG2       -0.0369
     18 H           7.5852   -4.7007    7.9434 H       2  LIG2        0.0637
     19 C           8.4347   -2.8789    7.6368 C.ar    2  LIG2       -0.0297
     20 H           7.7140   -2.3469    7.9364 H       2  LIG2        0.0641
     21 C           9.5957   -2.2776    7.1934 C.ar    2  LIG2        0.1263
     22 C          10.6743   -2.9996    6.7160 C.ar    2  LIG2       -0.0297
     23 H          11.4440   -2.5440    6.4141 H       2  LIG2        0.0641
     24 C          10.5977   -4.3879    6.6891 C.ar    2  LIG2       -0.0369
     25 H          11.3068   -4.9132    6.3603 H       2  LIG2        0.0637
     26 N           9.7055   -0.8163    7.2390 N.pl3   2  LIG2        0.0564
     27 O           8.6922   -0.1679    7.4683 O.2     2  LIG2       -0.1261
     28 O          10.8116   -0.3118    7.0518 O.2     2  LIG2       -0.1261
     29 N           9.2415   -6.4000    7.1864 N.pl3   2  LIG2       -0.1882
     30 H           8.3846   -6.6845    7.2706 H       2  LIG2        0.1788
     31 N          10.1971   -7.3439    7.0916 N.pl3   2  LIG2        0.1228
     32 O          11.3701   -7.0158    6.9524 O.2     2  LIG2       -0.1095
     33 O           9.8036   -8.5117    7.1407 O.2     2  LIG2       -0.1095
     34 C          18.2365   -4.4928    4.1560 C.ar    3  LIG3        0.0527
     35 C          17.4431   -5.5727    4.5620 C.ar    3  LIG3       -0.0369
     36 H          17.7755   -6.4687    4.4847 H       3  LIG3        0.0637
     37 C          16.1852   -5.3618    5.0721 C.ar    3  LIG3       -0.0297
     38 H          15.6545   -6.1003    5.3400 H       3  LIG3        0.0641
     39 C          15.7259   -4.0520    5.1786 C.ar    3  LIG3        0.1263
     40 C          16.4906   -2.9724    4.7773 C.ar    3  LIG3       -0.0297
     41 H          16.1516   -2.0797    4.8533 H       3  LIG3        0.0641
     42 C          17.7547   -3.1840    4.2636 C.ar    3  LIG3       -0.0369
     43 H          18.2769   -2.4429    3.9910 H       3  LIG3        0.0637
     44 N          14.3804   -3.8307    5.7016 N.pl3   3  LIG3        0.0564
     45 O          13.9740   -2.6700    5.7999 O.2     3  LIG3       -0.1261
     46 O          13.7108   -4.8039    6.0233 O.2     3  LIG3       -0.1261
     47 N          19.4803   -4.8796    3.6306 N.pl3   3  LIG3       -0.1882
     48 H          19.5591   -5.7526    3.4493 H       3  LIG3        0.1788
     49 N          20.5537   -4.0965    3.3709 N.pl3   3  LIG3        0.1228
     50 O          20.4418   -2.8778    3.4773 O.2     3  LIG3       -0.1095
     51 O          21.5800   -4.6864    3.0362 O.2     3  LIG3       -0.1095
@<TRIPOS>BOND
     1    51    49    2
     2    49    50    2
     3    49    47    1
     4    48    47    1
     5    47    34    1
     6    43    42    1
     7    34    42   ar
     8    34    35   ar
     9    42    40   ar
    10    36    35    1
    11    35    37   ar
    12    40    41    1
    13    40    39   ar
    14    37    39   ar
    15    37    38    1
    16    39    44    1
    17    44    45    2
    18    44    46    2
    19    25    24    1
    20    23    22    1
    21    24    22   ar
    22    24    16   ar
    23    22    21   ar
    24    32    31    2
    25    28    26    2
    26    31    33    2
    27    31    29    1
    28    16    29    1
    29    16    17   ar
    30    29    30    1
    31    21    26    1
    32    21    19   ar
    33    26    27    2
    34    15    13    1
    35    14    13    1
    36    11    10    1
    37    12    10    1
    38    17    19   ar
    39    17    18    1
    40    19    20    1
    41    13    10    1
    42    13     1    1
    43    10     7    1
    44     7     9    1
    45     7     8    1
    46     7     4    1
    47     1     3    2
    48     1     2    2
    49     1     4    1
    50     6     4    1
    51     4     5    1
