@<TRIPOS>MOLECULE
1,2-Bis(4-pyridyl)ethane--maleic acid (1/2)
 25 24 0 0 0
SMALL
GASTEIGER

@<TRIPOS>ATOM
      1 N           7.8677    0.9170    3.4949 N.pl3   1  LIG1       -0.3269
      2 C           8.2198    1.5989    4.5913 C.2     1  LIG1       -0.0098
      3 C           7.3851    2.5621    5.1064 C.2     1  LIG1       -0.0592
      4 C           6.1691    2.8253    4.4893 C.3     1  LIG1        0.0222
      5 C           5.8296    2.0814    3.3655 C.2     1  LIG1       -0.0592
      6 C           6.6962    1.1284    2.8803 C.2     1  LIG1       -0.0098
      7 C           5.2697    3.9164    4.9936 C.3     1  LIG1       -0.0382
      8 O           9.6637   -0.7478    2.5177 O.co2   2  LIG2       -0.2413
      9 O           7.9873   -1.2681    1.1683 O.co2   2  LIG2       -0.2413
     10 O           7.5969   -2.7586   -0.7401 O.3     2  LIG2       -0.4775
     11 O           8.8174   -4.0410   -2.0532 O.2     2  LIG2       -0.2458
     12 C           9.1983   -1.3618    1.5220 C.2     2  LIG2        0.3797
     13 C          10.1594   -2.2148    0.7662 C.2     2  LIG2        0.0334
     14 C           9.9662   -3.0002   -0.2938 C.2     2  LIG2        0.0292
     15 C           8.7369   -3.3031   -1.0827 C.2     2  LIG2        0.3298
     16 H           8.4197    0.3139    3.1692 H       1  LIG1        0.1510
     17 H           9.0507    1.4168    5.0151 H       1  LIG1        0.0778
     18 H           7.6400    3.0464    5.8829 H       1  LIG1        0.0593
     19 H           4.9986    2.2313    2.9314 H       1  LIG1        0.0593
     20 H           6.4639    0.6214    2.1113 H       1  LIG1        0.0778
     21 H           5.4695    4.0943    5.9472 H       1  LIG1        0.0277
     22 H           4.3260    3.6235    4.9269 H       1  LIG1        0.0277
     23 H           7.7138   -2.2584   -0.0753 H       2  LIG2        0.2954
     24 H          11.0517   -2.1961    1.0919 H       2  LIG2        0.0692
     25 H          10.7482   -3.4442   -0.5997 H       2  LIG2        0.0691
@<TRIPOS>BOND
     1    11    15    2
     2    15    10    1
     3    15    14    1
     4    10    23    1
     5    25    14    1
     6    14    13    2
     7    13    24    1
     8    13    12    1
     9     9    12   ar
    10    12     8   ar
    11    20     6    1
    12     6     5    2
    13     6     1    1
    14    19     5    1
    15    16     1    1
    16     5     4    1
    17     1     2    1
    18     4     7    1
    19     4     3    1
    20     2    17    1
    21     2     3    2
    22    22     7    1
    23     7    21    1
    24     3    18    1
