@<TRIPOS>MOLECULE
?
 86 90 0 0 0
SMALL
GASTEIGER

@<TRIPOS>ATOM
      1 O           8.9849    9.2219    5.8293 O.3     1  HOH1       -0.4105
      2 C           6.3558    9.4428   -0.0348 C.ar    2  LIG2        0.1468
      3 C           7.3282   10.4411   -0.0276 C.ar    2  LIG2       -0.0155
      4 H           7.3499   11.0766    0.6777 H       2  LIG2        0.0658
      5 C           8.2666   10.5082   -1.0504 C.ar    2  LIG2       -0.0579
      6 H           8.9279   11.1894   -1.0408 H       2  LIG2        0.0619
      7 C           8.2424    9.5863   -2.0823 C.ar    2  LIG2       -0.0615
      8 H           8.8828    9.6400   -2.7811 H       2  LIG2        0.0618
      9 C           7.2834    8.5833   -2.0974 C.ar    2  LIG2       -0.0579
     10 H           7.2737    7.9444   -2.8003 H       2  LIG2        0.0619
     11 C           6.3406    8.5159   -1.0835 C.ar    2  LIG2       -0.0155
     12 H           5.6786    7.8351   -1.1009 H       2  LIG2        0.0658
     13 C           3.5854    9.1001    0.5427 C.ar    2  LIG2        0.1468
     14 C           2.9335   10.2252    0.0451 C.ar    2  LIG2       -0.0155
     15 H           3.3294   11.0843    0.1317 H       2  LIG2        0.0658
     16 C           1.7038   10.0856   -0.5774 C.ar    2  LIG2       -0.0579
     17 H           1.2484   10.8535   -0.9027 H       2  LIG2        0.0619
     18 C           1.1355    8.8333   -0.7274 C.ar    2  LIG2       -0.0615
     19 H           0.2939    8.7444   -1.1598 H       2  LIG2        0.0618
     20 C           1.7850    7.7100   -0.2522 C.ar    2  LIG2       -0.0579
     21 H           1.3979    6.8508   -0.3670 H       2  LIG2        0.0619
     22 C           3.0078    7.8458    0.3941 C.ar    2  LIG2       -0.0155
     23 H           3.4509    7.0771    0.7352 H       2  LIG2        0.0658
     24 C           4.6193    6.1031    4.7090 C.ar    2  LIG2        0.0681
     25 C           4.5979    5.2082    3.6428 C.ar    2  LIG2       -0.0375
     26 H           5.1675    5.3449    2.8949 H       2  LIG2        0.0637
     27 C           3.7403    4.1146    3.6762 C.ar    2  LIG2       -0.0599
     28 H           3.7238    3.5104    2.9435 H       2  LIG2        0.0618
     29 C           2.9151    3.8962    4.7588 C.ar    2  LIG2       -0.0616
     30 H           2.3256    3.1506    4.7682 H       2  LIG2        0.0618
     31 C           2.9502    4.7724    5.8343 C.ar    2  LIG2       -0.0599
     32 H           2.3942    4.6201    6.5890 H       2  LIG2        0.0618
     33 C           3.7958    5.8710    5.8076 C.ar    2  LIG2       -0.0375
     34 H           3.8135    6.4699    6.5442 H       2  LIG2        0.0637
     35 C           4.7016   12.4558    5.1178 C.ar    2  LIG2        0.0681
     36 C           4.6370   12.9335    6.4243 C.ar    2  LIG2       -0.0375
     37 H           4.9428   12.3942    7.1452 H       2  LIG2        0.0637
     38 C           4.1272   14.1966    6.6678 C.ar    2  LIG2       -0.0599
     39 H           4.0827   14.5187    7.5608 H       2  LIG2        0.0618
     40 C           3.6792   15.0004    5.6273 C.ar    2  LIG2       -0.0616
     41 H           3.3410   15.8711    5.8013 H       2  LIG2        0.0618
     42 C           3.7320   14.5142    4.3362 C.ar    2  LIG2       -0.0599
     43 H           3.4185   15.0522    3.6186 H       2  LIG2        0.0618
     44 C           4.2360   13.2498    4.0755 C.ar    2  LIG2       -0.0375
     45 H           4.2642   12.9256    3.1826 H       2  LIG2        0.0637
     46 C           8.4156    6.9445    2.2562 C.3     2  LIG2        0.1214
     47 H           7.9696    7.4020    1.5012 H       2  LIG2        0.0629
     48 H           8.6345    6.0233    1.9666 H       2  LIG2        0.0629
     49 C           9.6783    7.6661    2.5896 C.3     2  LIG2        0.0754
     50 H          10.2232    7.7853    1.7722 H       2  LIG2        0.0584
     51 H           9.4683    8.5603    2.9563 H       2  LIG2        0.0584
     52 C          11.7962    7.2069    3.6305 C.3     2  LIG2        0.0711
     53 H          12.0988    7.5581    2.7555 H       2  LIG2        0.0583
     54 H          12.2918    6.3689    3.8066 H       2  LIG2        0.0583
     55 C          12.1436    8.2148    4.7073 C.3     2  LIG2        0.0711
     56 H          11.8752    7.8466    5.5865 H       2  LIG2        0.0583
     57 H          13.1258    8.3387    4.7221 H       2  LIG2        0.0583
     58 C          11.9736   10.2093    3.3877 C.3     2  LIG2        0.0711
     59 H          11.6933    9.7403    2.5625 H       2  LIG2        0.0583
     60 H          12.9618   10.2687    3.3923 H       2  LIG2        0.0583
     61 C          11.3769   11.5796    3.4293 C.3     2  LIG2        0.0711
     62 H          11.7125   12.0730    4.2196 H       2  LIG2        0.0583
     63 H          11.6282   12.0848    2.6162 H       2  LIG2        0.0583
     64 C           9.2985   12.6857    3.6383 C.3     2  LIG2        0.0754
     65 H           9.2102   13.1216    2.7530 H       2  LIG2        0.0584
     66 H           9.8170   13.2862    4.2311 H       2  LIG2        0.0584
     67 C           7.9373   12.4344    4.2256 C.3     2  LIG2        0.1214
     68 H           8.0141   11.8359    5.0111 H       2  LIG2        0.0629
     69 H           7.5354   13.2885    4.5239 H       2  LIG2        0.0629
     70 N           6.8086    9.3216    3.9818 N.3     2  LIG2        0.2298
     71 N           5.1773   10.5928    2.2285 N.3     2  LIG2        0.1850
     72 N           5.5153    7.8860    2.0844 N.3     2  LIG2        0.1850
     73 N           5.4247    7.2545    4.7073 N.pl3   2  LIG2       -0.1554
     74 N           5.2442   11.1715    4.8806 N.pl3   2  LIG2       -0.1554
     75 O           7.5088    6.8869    3.3789 O.3     2  LIG2       -0.1674
     76 O          10.4048    6.9088    3.5492 O.3     2  LIG2       -0.3751
     77 O          11.5211    9.4929    4.5351 O.3     2  LIG2       -0.3752
     78 O           9.9689   11.4440    3.5023 O.3     2  LIG2       -0.3751
     79 O           7.1001   11.8207    3.2171 O.3     2  LIG2       -0.1674
     80 P           6.2934    7.8976    3.4731 P.3     2  LIG2        0.5128
     81 P           6.0660   10.6713    3.5466 P.3     2  LIG2        0.5128
     82 P           5.1924    9.2661    1.3383 P.3     2  LIG2        0.3604
     83 H           5.3597    7.7422    5.3448 H       2  LIG2        0.1979
     84 H           5.2195   10.6452    5.4855 H       2  LIG2        0.1979
     85 H           8.2504    9.2490    5.2681 H       0  HOH0        0.2052
     86 H           9.6711    9.3269    5.3832 H       0  HOH0        0.2052
@<TRIPOS>BOND
     1    10     9    1
     2     8     7    1
     3     9     7   ar
     4     9    11   ar
     5     7     5   ar
     6    19    18    1
     7    12    11    1
     8    11     2   ar
     9     5     6    1
    10     5     3   ar
    11    17    16    1
    12    18    16   ar
    13    18    20   ar
    14    16    14   ar
    15    21    20    1
    16    20    22   ar
    17     2     3   ar
    18     2    82    1
    19     3     4    1
    20    14    15    1
    21    14    13   ar
    22    22    13   ar
    23    22    23    1
    24    13    82    1
    25    82    72    1
    26    82    71    1
    27    47    46    1
    28    50    49    1
    29    48    46    1
    30    72    80    1
    31    71    81    1
    32    46    49    1
    33    46    75    1
    34    59    58    1
    35    49    51    1
    36    49    76    1
    37    63    61    1
    38    65    64    1
    39    53    52    1
    40    26    25    1
    41    28    27    1
    42    45    44    1
    43    79    81    1
    44    79    67    1
    45    75    80    1
    46    58    60    1
    47    58    61    1
    48    58    77    1
    49    61    78    1
    50    61    62    1
    51    80    70    1
    52    80    73    1
    53    78    64    1
    54    81    70    1
    55    81    74    1
    56    76    52    1
    57    43    42    1
    58    52    54    1
    59    52    55    1
    60    64    67    1
    61    64    66    1
    62    25    27   ar
    63    25    24   ar
    64    27    29   ar
    65    44    42   ar
    66    44    35   ar
    67    67    69    1
    68    67    68    1
    69    42    40   ar
    70    77    55    1
    71    73    24    1
    72    73    83    1
    73    55    57    1
    74    55    56    1
    75    24    33   ar
    76    29    30    1
    77    29    31   ar
    78    74    35    1
    79    74    84    1
    80    35    36   ar
    81    85     1    1
    82    86     1    1
    83    40    41    1
    84    40    38   ar
    85    33    31   ar
    86    33    34    1
    87    31    32    1
    88    36    38   ar
    89    36    37    1
    90    38    39    1
