@<TRIPOS>MOLECULE
?
 33 34 0 0 0
SMALL
GASTEIGER

@<TRIPOS>ATOM
      1 O          -1.7550    8.2741    6.5062 O.2     1  LIG1       -0.1260
      2 O          -0.5083    9.1549    4.9708 O.2     1  LIG1       -0.1260
      3 O           4.0024    7.6435    4.3873 O.2     1  LIG1       -0.1261
      4 O           4.7215    5.9705    5.5728 O.2     1  LIG1       -0.1261
      5 N          -1.1866    5.7823    7.3267 N.pl3   1  LIG1       -0.3207
      6 H          -1.9528    6.4078    7.1082 H       1  LIG1        0.1481
      7 N           1.0059    5.1726    6.9981 N.ar    1  LIG1       -0.2359
      8 N          -0.7326    8.2921    5.8075 N.pl3   1  LIG1        0.0599
      9 N           3.8245    6.7212    5.1802 N.pl3   1  LIG1        0.0580
     10 C          -2.6599    4.7631    8.9445 C.ar    1  LIG1       -0.0275
     11 C          -3.8489    4.0316    8.8885 C.ar    1  LIG1       -0.0568
     12 H          -3.9762    3.2326    8.1596 H       1  LIG1        0.0621
     13 C          -4.9008    4.3100    9.7708 C.ar    1  LIG1       -0.0614
     14 H          -5.8276    3.7451    9.6936 H       1  LIG1        0.0618
     15 C          -4.7629    5.3017   10.7420 C.ar    1  LIG1       -0.0617
     16 H          -5.5837    5.4942   11.4329 H       1  LIG1        0.0618
     17 C          -3.5678    6.0269   10.8161 C.ar    1  LIG1       -0.0614
     18 H          -3.4368    6.7814   11.5840 H       1  LIG1        0.0618
     19 C          -2.5344    5.7676    9.9158 C.ar    1  LIG1       -0.0568
     20 H          -1.6191    6.3504    9.9700 H       1  LIG1        0.0621
     21 C          -1.4989    4.5080    7.9959 C.3     1  LIG1        0.0444
     22 H          -0.6072    4.2379    8.5827 H       1  LIG1        0.0545
     23 C          -1.7584    3.4105    6.9598 C.3     1  LIG1       -0.0425
     24 H          -1.9272    2.4459    7.4477 H       1  LIG1        0.0251
     25 H          -0.8905    3.3132    6.2932 H       1  LIG1        0.0251
     26 H          -2.6389    3.6457    6.3572 H       1  LIG1        0.0251
     27 C           0.0044    6.0695    6.7890 C.ar    1  LIG1        0.1498
     28 C           0.2619    7.2514    6.0138 C.ar    1  LIG1        0.1678
     29 C           1.5033    7.4611    5.4465 C.ar    1  LIG1        0.0037
     30 H           1.7057    8.3498    4.8588 H       1  LIG1        0.0665
     31 C           2.4872    6.5143    5.6917 C.ar    1  LIG1        0.1465
     32 C           2.2020    5.3992    6.4854 C.ar    1  LIG1        0.0600
     33 H           2.9852    4.6706    6.6950 H       1  LIG1        0.0853
@<TRIPOS>BOND
     1     3     9    2
     2    30    29    1
     3     2     8    2
     4     9     4    2
     5     9    31    1
     6    29    31   ar
     7    29    28   ar
     8    31    32   ar
     9     8    28    1
    10     8     1    2
    11    28    27   ar
    12    25    23    1
    13    26    23    1
    14    32    33    1
    15    32     7   ar
    16    27     7   ar
    17    27     5    1
    18    23    24    1
    19    23    21    1
    20     6     5    1
    21     5    21    1
    22    21    22    1
    23    21    10    1
    24    12    11    1
    25    11    10   ar
    26    11    13   ar
    27    10    19   ar
    28    14    13    1
    29    13    15   ar
    30    19    20    1
    31    19    17   ar
    32    15    17   ar
    33    15    16    1
    34    17    18    1
