@<TRIPOS>MOLECULE
?
 68 72 0 0 0
SMALL
GASTEIGER

@<TRIPOS>ATOM
      1 H           0.8031    9.0259    5.8512 H       1  LIG1        0.0512
      2 H           0.4409   10.3526    1.5180 H       1  LIG1        0.0512
      3 H          -0.2415   11.2162    0.3581 H       1  LIG1        0.0512
      4 H           2.2520   13.4308   10.1197 H       1  LIG1        0.0618
      5 H          -2.8465   11.7002    1.3752 H       1  LIG1        0.0512
      6 H          -2.6197   12.7518    2.5123 H       1  LIG1        0.0512
      7 H           2.5612   12.8998    7.8893 H       1  LIG1        0.0621
      8 H           3.2838    7.2430    7.4474 H       1  LIG1        0.0621
      9 H           3.8911   11.3816    6.3350 H       1  LIG1        0.0512
     10 H           4.0814    9.8564    6.8036 H       1  LIG1        0.0512
     11 H          -3.7265    6.7729   -0.0362 H       1  LIG1        0.0618
     12 H          -3.4704   12.9399   -0.5067 H       1  LIG1        0.0621
     13 H           2.0197    8.1327    3.7523 H       1  LIG1        0.0621
     14 H          -0.3165   14.2544    1.5504 H       1  LIG1        0.0621
     15 H           2.5831   11.9840   11.8015 H       1  LIG1        0.0618
     16 H           1.6007    8.8396    7.1998 H       1  LIG1        0.0512
     17 H           3.6808    9.1843    9.0054 H       1  LIG1        0.0621
     18 H           4.6009    5.5263    6.5465 H       1  LIG1        0.0618
     19 H          -1.8715   10.2133   -1.0743 H       1  LIG1        0.0621
     20 H           4.7308    5.1902    4.2722 H       1  LIG1        0.0618
     21 H           0.0640   15.8614   -0.0248 H       1  LIG1        0.0618
     22 H          -2.6142    6.8269    2.0933 H       1  LIG1        0.0618
     23 H          -1.3903   16.2096   -1.7638 H       1  LIG1        0.0618
     24 H          -1.1470    8.5662    2.4913 H       1  LIG1        0.0621
     25 H           3.4813    6.4943    2.8970 H       1  LIG1        0.0618
     26 H          -3.2746    8.4792   -1.5714 H       1  LIG1        0.0618
     27 P           0.4976   13.6177    5.1591 P.3     1  LIG1        0.4825
     28 P          -0.6593   11.5842    3.7286 P.3     1  LIG1        0.4616
     29 CL          3.4570   11.1836    3.5140 Cl      1  LIG1        0.1642
     30 P           1.8662   11.2733    4.7926 P.3     1  LIG1        0.4616
     31 CL         -0.1592   13.9875    7.0165 Cl      1  LIG1        0.1627
     32 CL          0.9531   15.4653    4.5442 Cl      1  LIG1        0.1627
     33 CL         -2.2408   10.6440    4.6096 Cl      1  LIG1        0.1642
     34 N          -0.9961   11.6245    2.1407 N.3     1  LIG1       -0.1150
     35 N           0.6182   10.6940    4.0170 N.3     1  LIG1        0.1948
     36 N           2.2560   10.3263    6.0501 N.3     1  LIG1       -0.1150
     37 N          -0.6877   13.0666    4.2983 N.3     1  LIG1        0.1938
     38 C           3.4762   10.6454    6.8263 C.3     1  LIG1        0.0640
     39 C          -0.4158   10.6874    1.1501 C.3     1  LIG1        0.0640
     40 C           3.3730   10.0851    9.2820 C.ar    1  LIG1       -0.0572
     41 N           1.8338   12.8096    5.2374 N.3     1  LIG1        0.1938
     42 C           3.1854   11.0046    8.2656 C.ar    1  LIG1       -0.0298
     43 C           2.6005    7.6307    4.3330 C.ar    1  LIG1       -0.0572
     44 C           2.5493    7.8686    5.6960 C.ar    1  LIG1       -0.0298
     45 C           1.6922    8.9776    6.2535 C.3     1  LIG1        0.0640
     46 C           2.7531   12.2739    8.5915 C.ar    1  LIG1       -0.0572
     47 C           2.5226   12.6169    9.9166 C.ar    1  LIG1       -0.0615
     48 C          -1.9512   13.3986    0.6847 C.ar    1  LIG1       -0.0298
     49 C          -2.2150   12.3313    1.7188 C.3     1  LIG1        0.0640
     50 C          -1.3433    9.5660    0.7958 C.ar    1  LIG1       -0.0298
     51 C          -2.8804    8.5014   -0.7274 C.ar    1  LIG1       -0.0615
     52 C          -2.0025    9.5310   -0.4206 C.ar    1  LIG1       -0.0572
     53 C          -2.4516    7.5085    1.3910 C.ar    1  LIG1       -0.0615
     54 C          -0.8849   14.2723    0.8192 C.ar    1  LIG1       -0.0572
     55 C           3.3264    7.0701    6.5291 C.ar    1  LIG1       -0.0572
     56 C           2.7317   11.7007   10.9153 C.ar    1  LIG1       -0.0617
     57 C          -1.5768    8.5291    1.6931 C.ar    1  LIG1       -0.0572
     58 C           4.1293    6.0838    5.9981 C.ar    1  LIG1       -0.0615
     59 C          -3.1080    7.4960    0.1899 C.ar    1  LIG1       -0.0617
     60 C           3.4087    6.6428    3.8123 C.ar    1  LIG1       -0.0615
     61 C           4.1811    5.8651    4.6564 C.ar    1  LIG1       -0.0617
     62 C          -2.8036   13.5545   -0.3933 C.ar    1  LIG1       -0.0572
     63 C          -2.5968   14.5747   -1.3028 C.ar    1  LIG1       -0.0615
     64 H          -3.1813   14.6775   -2.0190 H       1  LIG1        0.0618
     65 C          -0.6769   15.2834   -0.0945 C.ar    1  LIG1       -0.0615
     66 C          -1.5367   15.4366   -1.1636 C.ar    1  LIG1       -0.0617
     67 C           3.1464   10.4320   10.5998 C.ar    1  LIG1       -0.0615
     68 H           3.2746    9.8041   11.2739 H       1  LIG1        0.0618
@<TRIPOS>BOND
     1    64    63    1
     2    23    66    1
     3    26    51    1
     4    63    66   ar
     5    63    62   ar
     6    66    65   ar
     7    19    52    1
     8    51    52   ar
     9    51    59   ar
    10    12    62    1
    11    52    50   ar
    12    62    48   ar
    13    65    21    1
    14    65    54   ar
    15    11    59    1
    16    59    53   ar
    17     3    39    1
    18    48    54   ar
    19    48    49    1
    20    50    39    1
    21    50    57   ar
    22    54    14    1
    23    39     2    1
    24    39    34    1
    25     5    49    1
    26    53    57   ar
    27    53    22    1
    28    57    24    1
    29    49    34    1
    30    49     6    1
    31    34    28    1
    32    25    60    1
    33    29    30    1
    34    28    35    1
    35    28    37    1
    36    28    33    1
    37    13    43    1
    38    60    43   ar
    39    60    61   ar
    40    35    30    1
    41    20    61    1
    42    37    27    1
    43    43    44   ar
    44    32    27    1
    45    61    58   ar
    46    30    41    1
    47    30    36    1
    48    27    41    1
    49    27    31    1
    50    44    45    1
    51    44    55   ar
    52     1    45    1
    53    58    55   ar
    54    58    18    1
    55    36    45    1
    56    36    38    1
    57    45    16    1
    58     9    38    1
    59    55     8    1
    60    10    38    1
    61    38    42    1
    62     7    46    1
    63    42    46   ar
    64    42    40   ar
    65    46    47   ar
    66    17    40    1
    67    40    67   ar
    68    47     4    1
    69    47    56   ar
    70    67    56   ar
    71    67    68    1
    72    56    15    1
