@<TRIPOS>MOLECULE
?
 31 30 0 0 0
SMALL
GASTEIGER

@<TRIPOS>ATOM
      1 O           2.9964   -3.4527    0.4359 O.3     1  LIG1       -0.5068
      2 H           3.8240   -3.6159   -0.0839 H       1  LIG1        0.2921
      3 C           2.6459   -2.1348    0.3726 C.ar    1  LIG1        0.1170
      4 C           3.2339   -1.2427   -0.5135 C.ar    1  LIG1       -0.0184
      5 H           3.9043   -1.5445   -1.1162 H       1  LIG1        0.0655
      6 C           2.8436    0.0885   -0.5196 C.ar    1  LIG1       -0.0370
      7 H           3.2626    0.6967   -1.1171 H       1  LIG1        0.0637
      8 C           1.8477    0.5458    0.3369 C.ar    1  LIG1        0.0336
      9 C           1.2481   -0.3525    1.2113 C.ar    1  LIG1       -0.0370
     10 H           0.5617   -0.0562    1.7969 H       1  LIG1        0.0637
     11 C           1.6485   -1.6815    1.2327 C.ar    1  LIG1       -0.0184
     12 H           1.2384   -2.2875    1.8389 H       1  LIG1        0.0655
     13 N           1.4406    1.9005    0.2124 N.am    1  LIG1       -0.2857
     14 H           1.5040    2.2467   -0.5782 H       1  LIG1        0.1548
     15 C           0.9506    2.6818    1.1862 C.2     1  LIG1        0.2141
     16 O           0.8681    2.3226    2.3628 O.2     1  LIG1       -0.2758
     17 C           0.4939    4.0468    0.7404 C.3     1  LIG1        0.0125
     18 H          -0.4858    4.0712    0.7152 H       1  LIG1        0.0323
     19 H           0.8484    4.2343   -0.1539 H       1  LIG1        0.0323
     20 H           0.8209    4.7227    1.3699 H       1  LIG1        0.0323
     21 N           5.2701    4.2302    0.6547 N.3     2  LIG2       -0.3029
     22 C           4.5718    3.2696    1.5104 C.3     2  LIG2       -0.0127
     23 H           4.3933    2.4506    1.0034 H       2  LIG2        0.0391
     24 H           3.7248    3.6578    1.8137 H       2  LIG2        0.0391
     25 H           5.1298    3.0581    2.2874 H       2  LIG2        0.0391
     26 C           5.5347    5.4690    1.4037 C.3     2  LIG2        0.0114
     27 H           6.0916    5.2651    2.1961 H       2  LIG2        0.0439
     28 H           4.6796    5.8559    1.7195 H       2  LIG2        0.0439
     29 C           4.4473    4.5558   -0.5235 C.3     2  LIG2        0.0114
     30 H           3.5808    4.9332   -0.2294 H       2  LIG2        0.0439
     31 H           4.2641    3.7305   -1.0388 H       2  LIG2        0.0439
@<TRIPOS>BOND
     1     7     6    1
     2     5     4    1
     3    31    29    1
     4    14    13    1
     5    29    30    1
     6    29    21    1
     7     6     4   ar
     8     6     8   ar
     9     4     3   ar
    10    19    17    1
    11     2     1    1
    12    13     8    1
    13    13    15   am
    14     8     9   ar
    15     3     1    1
    16     3    11   ar
    17    21    26    1
    18    21    22    1
    19    18    17    1
    20    17    15    1
    21    17    20    1
    22    23    22    1
    23    15    16    2
    24     9    11   ar
    25     9    10    1
    26    11    12    1
    27    26    28    1
    28    26    27    1
    29    22    24    1
    30    22    25    1
