@<TRIPOS>MOLECULE
?
 31 32 0 0 0
SMALL
GASTEIGER

@<TRIPOS>ATOM
      1 O           2.9084    0.9616    8.2751 O.2     1  LIG1       -0.1261
      2 O           1.2495    1.1560    6.8960 O.2     1  LIG1       -0.1261
      3 N           4.3540    6.2276    5.2917 N.pl3   1  LIG1       -0.3225
      4 H           5.2270    6.5844    5.6771 H       1  LIG1        0.1480
      5 N           2.6994    4.6040    5.3299 N.ar    1  LIG1       -0.2382
      6 N           2.3065    1.5644    7.3921 N.pl3   1  LIG1        0.0579
      7 C           4.1193    5.8745    2.8482 C.ar    1  LIG1       -0.0275
      8 C           3.2204    5.8915    1.7826 C.ar    1  LIG1       -0.0568
      9 H           2.3257    6.5063    1.8618 H       1  LIG1        0.0621
     10 C           3.4580    5.1319    0.6447 C.ar    1  LIG1       -0.0614
     11 H           2.7471    5.1546   -0.1568 H       1  LIG1        0.0618
     12 C           4.6059    4.3422    0.5584 C.ar    1  LIG1       -0.0617
     13 H           4.7948    3.7399   -0.3171 H       1  LIG1        0.0618
     14 C           5.5050    4.3157    1.6117 C.ar    1  LIG1       -0.0614
     15 H           6.4024    3.7116    1.5483 H       1  LIG1        0.0618
     16 C           5.2742    5.0816    2.7601 C.ar    1  LIG1       -0.0568
     17 H           5.9920    5.0709    3.5774 H       1  LIG1        0.0621
     18 C           3.8720    6.7889    4.0389 C.3     1  LIG1        0.0444
     19 H           2.7814    6.9481    4.1270 H       1  LIG1        0.0545
     20 C           4.5824    8.1262    3.8047 C.3     1  LIG1       -0.0425
     21 H           4.4532    8.7888    4.6537 H       1  LIG1        0.0251
     22 H           4.1842    8.6132    2.9310 H       1  LIG1        0.0251
     23 H           5.6385    7.9632    3.6479 H       1  LIG1        0.0251
     24 C           3.8418    5.1074    5.8550 C.ar    1  LIG1        0.1192
     25 C           4.5155    4.5045    6.9470 C.ar    1  LIG1       -0.0197
     26 H           5.4127    4.9513    7.3293 H       1  LIG1        0.0652
     27 C           4.0236    3.3384    7.4684 C.ar    1  LIG1       -0.0267
     28 H           4.5186    2.8268    8.2822 H       1  LIG1        0.0642
     29 C           2.8483    2.8073    6.8995 C.ar    1  LIG1        0.1443
     30 C           2.2208    3.4731    5.8585 C.ar    1  LIG1        0.0599
     31 H           1.3010    3.0647    5.4463 H       1  LIG1        0.0853
@<TRIPOS>BOND
     1    13    12    1
     2    11    10    1
     3    12    10   ar
     4    12    14   ar
     5    10     8   ar
     6    15    14    1
     7    14    16   ar
     8     8     9    1
     9     8     7   ar
    10    16     7   ar
    11    16    17    1
    12     7    18    1
    13    22    20    1
    14    23    20    1
    15    20    18    1
    16    20    21    1
    17    18    19    1
    18    18     3    1
    19     3     4    1
    20     3    24    1
    21     5    24   ar
    22     5    30   ar
    23    31    30    1
    24    24    25   ar
    25    30    29   ar
    26     2     6    2
    27    29     6    1
    28    29    27   ar
    29    25    26    1
    30    25    27   ar
    31     6     1    2
    32    27    28    1
