@<TRIPOS>MOLECULE
ortho tetrachlorodicyanobenzene/hexamethyl benzene, 1/1
 22 20 0 0 0
SMALL
GASTEIGER

@<TRIPOS>ATOM
      1 CL          8.6732    8.8265    3.4981 Cl      1  LIG1       -0.0808
      2 CL         10.2362    6.1316    3.5718 Cl      1  LIG1       -0.0849
      3 N           9.1073    2.6919    3.5656 N.1     1  LIG1       -0.1955
      4 C           7.8325    4.9273    3.4304 C.3     1  LIG1        0.1439
      5 C           7.8299    7.3430    3.4305 C.2     1  LIG1        0.0763
      6 C           8.5279    6.1370    3.4713 C.2     1  LIG1        0.0620
      7 C           8.5497    3.6719    3.4937 C.1     1  LIG1        0.0789
      8 C           9.3020    4.6336    0.1021 C.3     2  LIG2        0.0089
      9 C           8.5558    5.8121   -0.0150 C.2     2  LIG2       -0.0619
     10 C           7.1650    5.7499   -0.1020 C.2     2  LIG2       -0.0480
     11 C          10.8217    4.6986    0.2235 C.3     2  LIG2       -0.0542
     12 H          11.1288    4.0068    0.8452 H       2  LIG2        0.0239
     13 H          11.0850    5.5806    0.5594 H       2  LIG2        0.0239
     14 H          11.2270    4.5494   -0.6569 H       2  LIG2        0.0239
     15 C           9.2549    7.1572   -0.0528 C.3     2  LIG2       -0.0427
     16 H          10.1566    7.0465   -0.4185 H       2  LIG2        0.0275
     17 H           9.3116    7.5205    0.8547 H       2  LIG2        0.0275
     18 H           8.7453    7.7730   -0.6203 H       2  LIG2        0.0275
     19 C           6.3419    7.0209   -0.1991 C.3     2  LIG2       -0.0395
     20 H           5.4513    6.8635    0.1801 H       2  LIG2        0.0278
     21 H           6.2546    7.2835   -1.1391 H       2  LIG2        0.0278
     22 H           6.7862    7.7373    0.3007 H       2  LIG2        0.0278
@<TRIPOS>BOND
     1    21    19    1
     2    14    11    1
     3    18    15    1
     4    16    15    1
     5    19    10    1
     6    19    20    1
     7    19    22    1
     8    10     9    2
     9    15     9    1
    10    15    17    1
    11     9     8    1
    12     8    11    1
    13    11    13    1
    14    11    12    1
    15     4     6    1
    16     4     7    1
    17     5     6    2
    18     5     1    1
    19     6     2    1
    20     7     3    3
