@<TRIPOS>MOLECULE
2103555.cif
 40 42 0 0 0
SMALL
GASTEIGER

@<TRIPOS>ATOM
      1 C           5.6109    4.0947    7.6763 C.3     1  LIG1        0.1888
      2 C           4.7949    5.3081    7.1420 C.3     1  LIG1        0.1631
      3 C           4.5000    5.1478    5.6414 C.3     1  LIG1        0.1895
      4 O           5.6866    4.9630    4.8950 O.3     1  LIG1       -0.3311
      5 C           6.0773    3.5759    5.0904 C.3     1  LIG1        0.1744
      6 C           7.2885    3.5631    6.0102 C.3     1  LIG1        0.0954
      7 O           6.9595    4.1652    7.2774 O.3     1  LIG1       -0.3417
      8 O           5.0090    2.9033    7.1832 O.3     1  LIG1       -0.3137
      9 C           4.8180    2.9562    5.7738 C.3     1  LIG1        0.2069
     10 O           3.8052    3.9085    5.4920 O.3     1  LIG1       -0.3137
     11 C           3.6768    6.2651    5.0444 C.3     1  LIG1       -0.0094
     12 C           5.4711    6.6220    7.4609 C.2     1  LIG1        0.3204
     13 O           5.1205    7.0577    8.6732 O.3     1  LIG1       -0.4675
     14 C           5.7169    8.3232    9.0711 C.3     1  LIG1        0.0817
     15 O           6.2094    7.2247    6.7502 O.2     1  LIG1       -0.2501
     16 C           5.5969    3.9975    9.1833 C.3     1  LIG1       -0.0094
     17 C           4.3573    1.5901    5.3451 C.3     1  LIG1       -0.0073
     18 C           7.8920    2.1784    6.2246 C.3     1  LIG1       -0.0356
     19 C           6.3550    2.9832    3.7213 C.3     1  LIG1        0.0809
     20 O           7.4753    3.6335    3.1738 O.3     1  LIG1       -0.3919
     21 H           5.4085    8.4933    9.9518 H       1  LIG1        0.0661
     22 H           5.4441    9.0993    8.4025 H       1  LIG1        0.0661
     23 H           6.6537    8.2576    9.0426 H       1  LIG1        0.0661
     24 H           8.5996    2.2643    6.8430 H       1  LIG1        0.0255
     25 H           8.3266    1.8771    5.3621 H       1  LIG1        0.0255
     26 H           7.1739    1.5404    6.5361 H       1  LIG1        0.0255
     27 H           4.1251    1.6162    4.3860 H       1  LIG1        0.0282
     28 H           3.6082    1.3636    5.8378 H       1  LIG1        0.0282
     29 H           5.0397    0.9175    5.5280 H       1  LIG1        0.0282
     30 H           4.6862    4.0151    9.5605 H       1  LIG1        0.0281
     31 H           6.1845    4.7138    9.5867 H       1  LIG1        0.0281
     32 H           6.0020    3.1818    9.4543 H       1  LIG1        0.0281
     33 H           4.1948    7.1296    5.0421 H       1  LIG1        0.0281
     34 H           2.8614    6.3720    5.5411 H       1  LIG1        0.0281
     35 H           3.4417    6.0185    4.1183 H       1  LIG1        0.0281
     36 H           6.5519    2.0253    3.8318 H       1  LIG1        0.0588
     37 H           5.5856    3.1322    2.9560 H       1  LIG1        0.0588
     38 H           3.9576    5.2651    7.6010 H       1  LIG1        0.0521
     39 H           7.9833    4.1793    5.6036 H       1  LIG1        0.0626
     40 H           7.5926    3.0640    2.0657 H       1  LIG1        0.2095
@<TRIPOS>BOND
     1    40    20    1
     2    37    19    1
     3    20    19    1
     4    19    36    1
     5    19     5    1
     6    35    11    1
     7    27    17    1
     8     4     5    1
     9     4     3    1
    10    33    11    1
    11    11    34    1
    12    11     3    1
    13     5     9    1
    14     5     6    1
    15    17    29    1
    16    17     9    1
    17    17    28    1
    18    25    18    1
    19    10     3    1
    20    10     9    1
    21    39     6    1
    22     3     2    1
    23     9     8    1
    24     6    18    1
    25     6     7    1
    26    18    26    1
    27    18    24    1
    28    15    12    2
    29     2    12    1
    30     2    38    1
    31     2     1    1
    32     8     1    1
    33     7     1    1
    34    12    13    1
    35     1    16    1
    36    22    14    1
    37    13    14    1
    38    23    14    1
    39    14    21    1
    40    16    32    1
    41    16    30    1
    42    16    31    1
