@<TRIPOS>MOLECULE
2103557.cif
 42 44 0 0 0
SMALL
GASTEIGER

@<TRIPOS>ATOM
      1 O           5.6308    5.9793    3.4887 O.3     1  LIG1       -0.3310
      2 O           7.6944    6.7785    1.8752 O.3     1  LIG1       -0.3418
      3 O           5.9285    6.4339    0.4160 O.3     1  LIG1       -0.3139
      4 O           4.3446    5.3721    1.7420 O.3     1  LIG1       -0.3138
      5 O           7.7919    2.6189    2.3373 O.2     1  LIG1       -0.2970
      6 O           4.5762    9.4027    2.9992 O.3     1  LIG1       -0.3889
      7 C           7.0644    5.8313    1.0001 C.3     1  LIG1        0.1854
      8 C           6.6006    4.5537    1.7590 C.3     1  LIG1        0.1243
      9 C           5.3611    4.8784    2.6056 C.3     1  LIG1        0.1861
     10 C           5.4544    7.1932    2.6964 C.3     1  LIG1        0.1769
     11 C           6.8224    7.7837    2.4188 C.3     1  LIG1        0.0957
     12 C           4.8666    6.6440    1.3560 C.3     1  LIG1        0.2071
     13 C           7.6587    3.7912    2.5284 C.2     1  LIG1        0.1436
     14 C           8.5404    4.4788    3.5264 C.3     1  LIG1       -0.0054
     15 C           4.5812    8.0736    3.5785 C.3     1  LIG1        0.0890
     16 C           3.1790    7.5674    3.8708 C.3     1  LIG1       -0.0360
     17 C           8.0450    5.5166   -0.0689 C.3     1  LIG1       -0.0095
     18 C           4.7939    3.7241    3.4157 C.3     1  LIG1       -0.0095
     19 C           3.8151    7.4172    0.5961 C.3     1  LIG1       -0.0073
     20 C           7.5396    8.3543    3.6120 C.3     1  LIG1       -0.0356
     21 H           6.2994    3.8848    1.0961 H       1  LIG1        0.0483
     22 H           6.6266    8.5013    1.7120 H       1  LIG1        0.0626
     23 H           5.1342    8.1165    4.4888 H       1  LIG1        0.0622
     24 H           3.6951    9.6805    2.9752 H       1  LIG1        0.2099
     25 H           9.0169    3.8478    4.1235 H       1  LIG1        0.0306
     26 H           9.1469    5.0131    3.0997 H       1  LIG1        0.0306
     27 H           7.9008    4.8634    4.0817 H       1  LIG1        0.0306
     28 H           2.7554    8.0783    4.6246 H       1  LIG1        0.0255
     29 H           3.3030    6.6236    4.1444 H       1  LIG1        0.0255
     30 H           2.5139    7.4942    3.1422 H       1  LIG1        0.0255
     31 H           8.9966    5.3325    0.3654 H       1  LIG1        0.0281
     32 H           7.7943    4.7692   -0.6472 H       1  LIG1        0.0281
     33 H           8.1401    6.2052   -0.6785 H       1  LIG1        0.0281
     34 H           4.6283    3.0549    2.7559 H       1  LIG1        0.0281
     35 H           3.9771    3.9969    3.9460 H       1  LIG1        0.0281
     36 H           5.5222    3.4493    4.0922 H       1  LIG1        0.0281
     37 H           3.5492    6.8814   -0.2505 H       1  LIG1        0.0282
     38 H           3.0283    7.4167    1.2423 H       1  LIG1        0.0282
     39 H           4.1330    8.1498    0.4384 H       1  LIG1        0.0282
     40 H           6.9817    9.0648    3.9460 H       1  LIG1        0.0255
     41 H           7.6965    7.7122    4.3636 H       1  LIG1        0.0255
     42 H           8.5100    8.5525    3.3823 H       1  LIG1        0.0255
@<TRIPOS>BOND
     1    33    17    1
     2    32    17    1
     3    37    19    1
     4    17    31    1
     5    17     7    1
     6     3     7    1
     7     3    12    1
     8    39    19    1
     9    19    38    1
    10    19    12    1
    11     7     8    1
    12     7     2    1
    13    21     8    1
    14    12     4    1
    15    12    10    1
    16    22    11    1
    17     4     9    1
    18     8    13    1
    19     8     9    1
    20     2    11    1
    21     5    13    2
    22    11    10    1
    23    11    20    1
    24    13    14    1
    25     9    18    1
    26     9     1    1
    27    10     1    1
    28    10    15    1
    29    34    18    1
    30    24     6    1
    31     6    15    1
    32    26    14    1
    33    30    16    1
    34    42    20    1
    35    18    35    1
    36    18    36    1
    37    14    27    1
    38    14    25    1
    39    15    16    1
    40    15    23    1
    41    20    40    1
    42    20    41    1
    43    16    29    1
    44    16    28    1
