@<TRIPOS>MOLECULE
?
 32 28 0 0 0
SMALL
GASTEIGER

@<TRIPOS>ATOM
      1 N          -0.0000   31.4120    6.5868 N.4     1  LIG1        0.2273
      2 H          -0.5155   31.1648    5.7857 H       1  LIG1        0.2002
      3 H          -0.5253   31.2070    7.2485 H       1  LIG1        0.2002
      4 H           0.3572   32.2433    6.5419 H       1  LIG1        0.2002
      5 C           1.1862   30.5985    6.9356 C.3     1  LIG1        0.0530
      6 H           1.5675   30.9634    7.7614 H       1  LIG1        0.0948
      7 C           2.2178   30.7918    5.8200 C.2     1  LIG1        0.2586
      8 O           1.9548   31.4357    4.8142 O.2     1  LIG1       -0.2698
      9 N           3.3867   30.2145    6.0121 N.am    1  LIG1       -0.3247
     10 H           3.4507   29.6964    6.5577 H       1  LIG1        0.1451
     11 H           3.8871   30.3266    5.1340 H       1  LIG1        0.1451
     12 C           0.8372   29.1376    7.1904 C.3     1  LIG1        0.0017
     13 H           1.6248   28.6893    7.5382 H       1  LIG1        0.0326
     14 H           0.1545   29.1019    7.8791 H       1  LIG1        0.0326
     15 C           0.3391   28.3615    5.9799 C.3     1  LIG1       -0.0167
     16 H          -0.5057   28.7315    5.6791 H       1  LIG1        0.0298
     17 H           0.9789   28.4391    5.2548 H       1  LIG1        0.0298
     18 C           0.1583   26.8996    6.3509 C.3     1  LIG1        0.0648
     19 H           1.0008   26.5516    6.6823 H       1  LIG1        0.0655
     20 H          -0.4929   26.8310    7.0664 H       1  LIG1        0.0655
     21 N          -0.2826   26.0884    5.2311 N.pl3   1  LIG1       -0.2787
     22 H           0.3602   25.9084    4.4628 H       1  LIG1        0.2578
     23 C          -1.5577   25.8882    4.9277 C.cat   1  LIG1        0.3410
     24 N          -2.5329   26.4093    5.6184 N.pl3   1  LIG1       -0.2919
     25 H          -3.2782   26.2235    5.2300 H       1  LIG1        0.2545
     26 H          -2.5057   26.8245    6.2416 H       1  LIG1        0.2545
     27 N          -1.8682   25.1401    3.8512 N.pl3   1  LIG1       -0.2919
     28 H          -1.2630   24.4075    3.7424 H       1  LIG1        0.2545
     29 H          -2.9270   25.1092    3.6575 H       1  LIG1        0.2545
     30 O           4.4975   28.2049    2.6116 O.3     2  HOH2        0.0000
     31 CL          5.7375   30.8259    3.8876 Cl      3  LIG3        0.0000
     32 CL          2.5169   25.8408    3.6527 Cl      4  LIG4        0.0000
@<TRIPOS>BOND
     1    29    27    1
     2    28    27    1
     3    27    23    2
     4    22    21    1
     5     8     7    2
     6    23    21    1
     7    23    24    1
     8    11     9    1
     9    25    24    1
    10    21    18    1
    11    17    15    1
    12    24    26    1
    13    16    15    1
    14     2     1    1
    15     7     9   am
    16     7     5    1
    17    15    18    1
    18    15    12    1
    19     9    10    1
    20    18    19    1
    21    18    20    1
    22     4     1    1
    23     1     5    1
    24     1     3    1
    25     5    12    1
    26     5     6    1
    27    12    13    1
    28    12    14    1
