@<TRIPOS>MOLECULE
2,4,6-trichlorophenylazide
 14 14 0 0 0
SMALL
GASTEIGER

@<TRIPOS>ATOM
      1 N           2.1539   10.0860    5.1012 N.2     1  LIG1        0.1630
      2 N           2.4129    9.8218    6.2975 N.2     1  LIG1        0.2601
      3 N           2.6463    9.7832    7.4042 N.2     1  LIG1        0.3547
      4 C           2.0321    9.0229    4.1578 C.ar    1  LIG1        0.1876
      5 C           1.4813    7.7551    4.4055 C.ar    1  LIG1        0.0760
      6 C           1.3034    6.8119    3.3898 C.ar    1  LIG1       -0.0227
      7 C           1.6772    7.1592    2.0973 C.ar    1  LIG1        0.0439
      8 C           2.2412    8.4006    1.8037 C.ar    1  LIG1       -0.0227
      9 C           2.4100    9.3182    2.8337 C.ar    1  LIG1        0.0760
     10 H           0.8817    5.9416    3.6336 H       1  LIG1        0.0647
     11 H           2.5248    8.5969    0.9043 H       1  LIG1        0.0647
     12 CL          0.9275    7.3271    5.9995 Cl      1  LIG1       -0.0810
     13 CL          1.3967    6.0308    0.7973 Cl      1  LIG1       -0.0834
     14 CL          3.0877   10.8692    2.4651 Cl      1  LIG1       -0.0810
@<TRIPOS>BOND
     1    13     7    1
     2    11     8    1
     3     8     7   ar
     4     8     9   ar
     5     7     6   ar
     6    14     9    1
     7     9     4   ar
     8     6    10    1
     9     6     5   ar
    10     4     5   ar
    11     4     1    1
    12     5    12    1
    13     1     2    2
    14     2     3    2
