@<TRIPOS>MOLECULE
1-(4-chlorphenylsulfonyl)-ethyl-1-cyanide
 22 22 0 0 0
SMALL
GASTEIGER

@<TRIPOS>ATOM
      1 S          -0.0505    4.9610    5.5630 S.O2    1  LIG1        0.0124
      2 O          -0.3624    3.6679    6.0863 O.2     1  LIG1       -0.1681
      3 O          -0.9271    5.5756    4.6064 O.2     1  LIG1       -0.1681
      4 CL          0.5577    8.8678   10.3643 Cl      1  LIG1       -0.0835
      5 C           0.4433    7.7806    9.0171 C.ar    1  LIG1        0.0411
      6 C           0.5532    6.4218    9.2394 C.ar    1  LIG1       -0.0416
      7 H           0.7049    6.0939   10.0963 H       1  LIG1        0.0633
      8 C           0.4349    5.5592    8.1727 C.ar    1  LIG1       -0.0355
      9 H           0.5157    4.6426    8.3014 H       1  LIG1        0.0637
     10 C           0.1942    6.0673    6.9028 C.ar    1  LIG1        0.0897
     11 C           0.1041    7.4392    6.6905 C.ar    1  LIG1       -0.0355
     12 H          -0.0471    7.7714    5.8351 H       1  LIG1        0.0637
     13 C           0.2386    8.2991    7.7530 C.ar    1  LIG1       -0.0416
     14 H           0.1928    9.2181    7.6226 H       1  LIG1        0.0633
     15 C           1.5618    4.8047    4.7509 C.3     1  LIG1        0.1646
     16 H           1.4616    4.1499    4.0291 H       1  LIG1        0.0695
     17 C           2.0507    6.1010    4.1216 C.3     1  LIG1       -0.0291
     18 H           1.3934    6.4229    3.5001 H       1  LIG1        0.0258
     19 H           2.8760    5.9412    3.6592 H       1  LIG1        0.0258
     20 H           2.1907    6.7565    4.8077 H       1  LIG1        0.0258
     21 C           2.5233    4.2475    5.7161 C.1     1  LIG1        0.0889
     22 N           3.2414    3.8455    6.4519 N.1     1  LIG1       -0.1946
@<TRIPOS>BOND
     1    18    17    1
     2    19    17    1
     3    16    15    1
     4    17    15    1
     5    17    20    1
     6     3     1    2
     7    15     1    1
     8    15    21    1
     9     1     2    2
    10     1    10    1
    11    21    22    3
    12    12    11    1
    13    11    10   ar
    14    11    13   ar
    15    10     8   ar
    16    14    13    1
    17    13     5   ar
    18     8     9    1
    19     8     6   ar
    20     5     6   ar
    21     5     4    1
    22     6     7    1
