@<TRIPOS>MOLECULE
(S)-2-amino-3-hydroxypropanoic acid
 14 13 0 0 0
SMALL
GASTEIGER

@<TRIPOS>ATOM
      1 C          -0.2320    0.9821    2.0546 C.2     1  LIG1        0.4049
      2 CA          1.2095    0.6070    2.4423 C.3     1  LIG1        0.1019
      3 HA          1.3785   -0.3301    2.2104 H       1  LIG1        0.0993
      4 C           1.5198    0.8291    3.8851 C.3     1  LIG1        0.0974
      5 H1          0.8328    0.4339    4.4440 H       1  LIG1        0.0620
      6 H2          2.3735    0.4284    4.1131 H       1  LIG1        0.0620
      7 N           2.1105    1.4852    1.6525 N.4     1  LIG1        0.2306
      8 H1          1.9393    1.3828    0.7849 H       1  LIG1        0.2003
      9 H2          2.9574    1.2652    1.8151 H       1  LIG1        0.2003
     10 H3          1.9748    2.3338    1.8834 H       1  LIG1        0.2003
     11 O          -0.4184    1.5282    0.9581 O.co2   1  LIG1       -0.2399
     12 O          -1.1262    0.7309    2.9117 O.co2   1  LIG1       -0.2399
     13 O           1.5649    2.2293    4.0727 O.3     1  LIG1       -0.3889
     14 H           1.7298    2.3947    4.8586 H       1  LIG1        0.2097
@<TRIPOS>BOND
     1     8     7    1
     2    11     1   ar
     3     7     9    1
     4     7    10    1
     5     7     2    1
     6     1     2    1
     7     1    12   ar
     8     3     2    1
     9     2     4    1
    10     4    13    1
    11     4     6    1
    12     4     5    1
    13    13    14    1
