@<TRIPOS>MOLECULE
2105245.cif
 64 61 0 0 0
SMALL
GASTEIGER

@<TRIPOS>ATOM
      1 O           7.6731    5.8831    2.8437 O.3     1  LIG1       -0.5068
      2 O           9.9480    1.1308   -3.0301 O.3     2  LIG2       -0.5068
      3 O           6.1472    3.9096   -8.2068 O.3     3  HOH3       -0.4105
      4 O           7.9599    5.3650   -6.7064 O.co2   4  LIG4       -0.2433
      5 O          13.6496    3.3468   -3.8578 O.3     5  HOH5       -0.4105
      6 O           9.2764    5.8370   -4.9758 O.co2   4  LIG4       -0.2433
      7 O           9.7357    3.5812   -7.7375 O.3     4  LIG4       -0.3778
      8 O           8.5638    2.6082   -5.3797 O.3     4  LIG4       -0.3778
      9 O          10.3453    0.8276   -6.4167 O.co2   4  LIG4       -0.2433
     10 O          12.0870    2.0097   -5.7032 O.co2   4  LIG4       -0.2433
     11 N           5.9897    4.3094   -4.6847 N.4     1  LIG1        0.2188
     12 N          11.6320    2.9242    4.3592 N.4     2  LIG2        0.2188
     13 C           7.3431    4.5644   -1.1040 C.ar    1  LIG1       -0.0421
     14 C           6.4441    4.1638   -0.1169 C.ar    1  LIG1       -0.0549
     15 H           5.7359    3.5717   -0.3435 H       1  LIG1        0.0621
     16 C           6.5625    4.6120    1.1903 C.ar    1  LIG1       -0.0199
     17 H           5.9369    4.3337    1.8483 H       1  LIG1        0.0654
     18 C           7.6022    5.4708    1.5340 C.ar    1  LIG1        0.1169
     19 C           8.5107    5.8775    0.5706 C.ar    1  LIG1       -0.0199
     20 H           9.2242    6.4614    0.8010 H       1  LIG1        0.0654
     21 C           8.3709    5.4240   -0.7380 C.ar    1  LIG1       -0.0549
     22 H           8.9939    5.7095   -1.3969 H       1  LIG1        0.0621
     23 C           7.2159    4.0707   -2.5329 C.3     1  LIG1        0.0126
     24 H           7.0990    3.0875   -2.5292 H       1  LIG1        0.0365
     25 H           8.0494    4.2771   -3.0255 H       1  LIG1        0.0365
     26 C           6.0384    4.7129   -3.2476 C.3     1  LIG1       -0.0313
     27 H           5.1963    4.4424   -2.8022 H       1  LIG1        0.0816
     28 H           6.1150    5.6979   -3.1857 H       1  LIG1        0.0816
     29 C          10.1692    2.6961    0.8333 C.ar    2  LIG2       -0.0421
     30 C          11.0928    3.0493   -0.1521 C.ar    2  LIG2       -0.0549
     31 H          11.7964    3.6509    0.0631 H       2  LIG2        0.0621
     32 C          11.0031    2.5379   -1.4406 C.ar    2  LIG2       -0.0199
     33 H          11.6403    2.7880   -2.0983 H       2  LIG2        0.0654
     34 C           9.9761    1.6581   -1.7622 C.ar    2  LIG2        0.1169
     35 C           9.0298    1.3155   -0.8044 C.ar    2  LIG2       -0.0199
     36 H           8.3127    0.7333   -1.0279 H       2  LIG2        0.0654
     37 C           9.1379    1.8296    0.4819 C.ar    2  LIG2       -0.0549
     38 H           8.4941    1.5845    1.1359 H       2  LIG2        0.0621
     39 C          10.3214    3.1961    2.2533 C.3     2  LIG2        0.0126
     40 H           9.4646    3.0868    2.7367 H       2  LIG2        0.0365
     41 H          10.5489    4.1599    2.2427 H       2  LIG2        0.0365
     42 C          11.4113    2.4251    2.9710 C.3     2  LIG2       -0.0313
     43 H          11.1636    1.4673    3.0049 H       2  LIG2        0.0816
     44 H          12.2558    2.5025    2.4600 H       2  LIG2        0.0816
     45 C           9.0003    5.1975   -6.0353 C.2     4  LIG4        0.3871
     46 C          10.0068    4.1252   -6.4605 C.3     4  LIG4        0.1924
     47 H          10.9283    4.5130   -6.4540 H       4  LIG4        0.0744
     48 C           9.9268    2.9880   -5.4427 C.3     4  LIG4        0.1924
     49 H          10.2223    3.3203   -4.5474 H       4  LIG4        0.0744
     50 C          10.8469    1.8496   -5.8958 C.2     4  LIG4        0.3871
     51 H           8.4281    6.2930    3.0389 H       1  LIG1        0.2921
     52 H           6.6674    4.6946   -5.1360 H       1  LIG1        0.1994
     53 H           6.8624    4.1126   -7.8363 H       0  HOH0        0.2052
     54 H           9.1783    0.7760   -3.1760 H       2  LIG2        0.2921
     55 H           5.1848    4.5859   -5.0280 H       1  LIG1        0.1994
     56 H           5.8316    3.2668   -7.7647 H       0  HOH0        0.2052
     57 H           6.0099    3.3987   -4.8217 H       1  LIG1        0.1994
     58 H          14.0432    3.7867   -4.3799 H       0  HOH0        0.2052
     59 H          10.9554    2.6227    4.9722 H       2  LIG2        0.1994
     60 H          13.0801    2.9099   -4.3738 H       0  HOH0        0.2052
     61 H           9.6762    4.2833   -8.2938 H       4  LIG4        0.2106
     62 H          11.6534    3.7944    4.3556 H       2  LIG2        0.1994
     63 H           8.5081    1.9089   -4.8423 H       4  LIG4        0.2106
     64 H          12.5115    2.6072    4.7124 H       2  LIG2        0.1994
@<TRIPOS>BOND
     1    61     7    1
     2     3    53    1
     3     3    56    1
     4     7    46    1
     5     4    45   ar
     6    46    47    1
     7    46    45    1
     8    46    48    1
     9     9    50   ar
    10    45     6   ar
    11    50    10   ar
    12    50    48    1
    13    48     8    1
    14    48    49    1
    15     8    63    1
    16    52    11    1
    17    55    11    1
    18    57    11    1
    19    11    26    1
    20    58     5    1
    21    60     5    1
    22    26    28    1
    23    26    27    1
    24    26    23    1
    25    54     2    1
    26     2    34    1
    27    25    23    1
    28    23    24    1
    29    23    13    1
    30    33    32    1
    31    34    32   ar
    32    34    35   ar
    33    32    30   ar
    34    22    21    1
    35    13    21   ar
    36    13    14   ar
    37    36    35    1
    38    35    37   ar
    39    21    19   ar
    40    15    14    1
    41    30    31    1
    42    30    29   ar
    43    14    16   ar
    44    37    29   ar
    45    37    38    1
    46    19    20    1
    47    19    18   ar
    48    29    39    1
    49    16    18   ar
    50    16    17    1
    51    18     1    1
    52    41    39    1
    53    39    40    1
    54    39    42    1
    55    44    42    1
    56     1    51    1
    57    42    43    1
    58    42    12    1
    59    62    12    1
    60    12    64    1
    61    12    59    1
