@<TRIPOS>MOLECULE
3-(4-Chlorophenylamino)-5-phenyl-2-cyclopenten-1,4-dione
 33 35 0 0 0
SMALL
GASTEIGER

@<TRIPOS>ATOM
      1 CL          0.2363    2.0477    7.1078 Cl      1  LIG1       -0.0835
      2 O          -2.2132   -0.8359   -1.3592 O.2     1  LIG1       -0.2915
      3 O          -2.2821    3.8236   -0.9730 O.2     1  LIG1       -0.2896
      4 N          -1.2966    2.8984    1.4669 N.pl3   1  LIG1       -0.3117
      5 C          -2.1330    0.2946   -0.9086 C.2     1  LIG1        0.1728
      6 C          -1.5516    0.6946    0.3293 C.2     1  LIG1        0.0065
      7 C          -1.6243    2.0385    0.4835 C.2     1  LIG1        0.0787
      8 C          -2.2181    2.6437   -0.7499 C.2     1  LIG1        0.1919
      9 C          -2.7057    1.5158   -1.6316 C.3     1  LIG1        0.1105
     10 C          -0.8889    2.6411    2.8022 C.ar    1  LIG1        0.0315
     11 C          -0.7540    3.7210    3.6419 C.ar    1  LIG1       -0.0392
     12 C          -0.4099    3.5383    4.9607 C.ar    1  LIG1       -0.0416
     13 C          -0.2082    2.2758    5.4442 C.ar    1  LIG1        0.0411
     14 C          -0.3233    1.2079    4.6284 C.ar    1  LIG1       -0.0416
     15 C          -0.6550    1.3772    3.2902 C.ar    1  LIG1       -0.0392
     16 C          -2.4027    1.5772   -3.1045 C.ar    1  LIG1       -0.0293
     17 C          -1.2803    2.1971   -3.5925 C.ar    1  LIG1       -0.0575
     18 C          -1.0128    2.1998   -4.9532 C.ar    1  LIG1       -0.0615
     19 C          -1.8483    1.5785   -5.8139 C.ar    1  LIG1       -0.0617
     20 C          -2.9572    0.9372   -5.3499 C.ar    1  LIG1       -0.0615
     21 C          -3.2473    0.9412   -3.9967 C.ar    1  LIG1       -0.0575
     22 H          -1.4799    3.7196    1.2649 H       1  LIG1        0.1522
     23 H          -1.2229    0.0680    1.0044 H       1  LIG1        0.0672
     24 H          -3.5976    1.4719   -1.5253 H       1  LIG1        0.0512
     25 H          -0.9128    4.5675    3.2857 H       1  LIG1        0.0636
     26 H          -0.3305    4.2529    5.5295 H       1  LIG1        0.0633
     27 H          -0.1940    0.3600    4.9592 H       1  LIG1        0.0633
     28 H          -0.7259    0.6133    2.7842 H       1  LIG1        0.0636
     29 H          -0.6689    2.5544   -3.0072 H       1  LIG1        0.0621
     30 H          -0.2375    2.5997   -5.1942 H       1  LIG1        0.0618
     31 H          -1.6276    1.6132   -6.7210 H       1  LIG1        0.0618
     32 H          -3.6080    0.5333   -5.8678 H       1  LIG1        0.0618
     33 H          -4.0490    0.5733   -3.6524 H       1  LIG1        0.0621
@<TRIPOS>BOND
     1    31    19    1
     2    32    20    1
     3    19    20   ar
     4    19    18   ar
     5    20    21   ar
     6    30    18    1
     7    18    17   ar
     8    21    33    1
     9    21    16   ar
    10    17    16   ar
    11    17    29    1
    12    16     9    1
    13     9    24    1
    14     9     5    1
    15     9     8    1
    16     2     5    2
    17     3     8    2
    18     5     6    1
    19     8     7    1
    20     6     7    2
    21     6    23    1
    22     7     4    1
    23    22     4    1
    24     4    10    1
    25    28    15    1
    26    10    15   ar
    27    10    11   ar
    28    25    11    1
    29    15    14   ar
    30    11    12   ar
    31    14    27    1
    32    14    13   ar
    33    12    13   ar
    34    12    26    1
    35    13     1    1
