@<TRIPOS>MOLECULE
DL-2-Aminopropionic Acid
 13 12 0 0 0
SMALL
GASTEIGER

@<TRIPOS>ATOM
      1 O           7.0588    2.9078    3.5298 O.co2   1  ALA1       -0.2400
      2 OXT         8.2324    1.1936    4.3267 O.co2   1  ALA1       -0.2400
      3 C           7.7421    1.8818    3.3972 C.2     1  ALA1        0.4023
      4 CA          7.9532    1.3120    1.9781 C.3     1  ALA1        0.0757
      5 HA          8.8936    1.0506    1.8893 H       1  ALA1        0.0967
      6 CB          7.1076    0.1142    1.7117 C.3     1  ALA1       -0.0110
      7 HB1         7.2696   -0.2001    0.8191 H       1  ALA1        0.0290
      8 HB2         6.1817    0.3492    1.8046 H       1  ALA1        0.0290
      9 HB3         7.3259   -0.5782    2.3392 H       1  ALA1        0.0290
     10 N           7.6656    2.3729    0.9675 N.4     1  ALA1        0.2287
     11 H1          8.2111    3.0641    1.0989 H       1  ALA1        0.2002
     12 H2          6.8210    2.6415    1.0510 H       1  ALA1        0.2002
     13 H3          7.7925    2.0459    0.1496 H       1  ALA1        0.2002
@<TRIPOS>BOND
     1    13    10    1
     2     7     6    1
     3    10    12    1
     4    10    11    1
     5    10     4    1
     6     6     8    1
     7     6     4    1
     8     6     9    1
     9     5     4    1
    10     4     3    1
    11     3     1   ar
    12     3     2   ar
