@<TRIPOS>MOLECULE
1,2-dibromobenzene
 12 12 0 0 0
SMALL
GASTEIGER

@<TRIPOS>ATOM
      1 BR          1.7196    6.5876    5.6250 Br      1  LIG1       -0.0492
      2 BR          3.3449    6.5506    8.5845 Br      1  LIG1       -0.0492
      3 C           1.9945    4.9955    6.5916 C.ar    1  LIG1        0.0318
      4 C           2.6411    4.9619    7.7880 C.ar    1  LIG1        0.0318
      5 C           2.8519    3.7764    8.4552 C.ar    1  LIG1       -0.0467
      6 H           3.2986    3.7596    9.2712 H       1  LIG1        0.0629
      7 C           2.3809    2.6152    7.8793 C.ar    1  LIG1       -0.0606
      8 H           2.5329    1.8065    8.3124 H       1  LIG1        0.0618
      9 C           1.7108    2.6106    6.7157 C.ar    1  LIG1       -0.0606
     10 H           1.3754    1.8157    6.3669 H       1  LIG1        0.0618
     11 C           1.5227    3.8374    6.0274 C.ar    1  LIG1       -0.0467
     12 H           1.0862    3.8557    5.2068 H       1  LIG1        0.0629
@<TRIPOS>BOND
     1    12    11    1
     2     1     3    1
     3    11     3   ar
     4    11     9   ar
     5    10     9    1
     6     3     4   ar
     7     9     7   ar
     8     4     5   ar
     9     4     2    1
    10     7     8    1
    11     7     5   ar
    12     5     6    1
