@<TRIPOS>MOLECULE
?
 10 9 0 0 0
SMALL
GASTEIGER

@<TRIPOS>ATOM
      1 OXT         1.1037    1.1463    1.1885 O.co2   1  GLY1       -0.2403
      2 O          -0.9330    1.7102    0.5443 O.co2   1  GLY1       -0.2403
      3 N           2.0944    1.0947   -1.3081 N.4     1  GLY1        0.2267
      4 C           0.2849    1.5052    0.3330 C.2     1  GLY1        0.3996
      5 CA          0.7884    1.7383   -1.0836 C.3     1  GLY1        0.0680
      6 H1          2.4329    1.2331   -2.3101 H       1  GLY1        0.2000
      7 H2          2.8149    1.4481   -0.6802 H       1  GLY1        0.2000
      8 H3          2.0283    0.1147   -1.1571 H       1  GLY1        0.2000
      9 HA1         0.8997    2.8104   -1.2377 H       1  GLY1        0.0933
     10 HA2         0.0770    1.3817   -1.7952 H       1  GLY1        0.0933
@<TRIPOS>BOND
     1     6     3    1
     2    10     5    1
     3     3     8    1
     4     3     5    1
     5     3     7    1
     6     9     5    1
     7     5     4    1
     8     4     2   ar
     9     4     1   ar
