@<TRIPOS>MOLECULE
4-(4-methylthiophenylmethyleneamino)-2,2,6,6-tetramethylpiperidin-1-oxyl
 46 47 0 0 0
SMALL
GASTEIGER

@<TRIPOS>ATOM
      1 S           0.4101    0.2457   -2.8044 S.3     1  LIG1       -0.1286
      2 O           5.7504    9.4056    3.4314 O.3     1  LIG1       -0.1183
      3 N           5.2194    8.4475    2.7606 N.4     1  LIG1       -0.1429
      4 N           3.4403    5.2197    0.6932 N.2     1  LIG1       -0.2876
      5 C           6.1448    7.3643    2.3325 C.3     1  LIG1        0.0468
      6 C           5.4387    6.4345    1.3452 C.3     1  LIG1       -0.0102
      7 C           4.0373    6.0530    1.7448 C.3     1  LIG1        0.0543
      8 C           3.2180    7.3232    1.8680 C.3     1  LIG1       -0.0102
      9 C           3.7464    8.3072    2.9093 C.3     1  LIG1        0.0468
     10 C           3.2745    4.0032    0.9346 C.2     1  LIG1        0.0296
     11 C           2.6542    3.0763   -0.0257 C.ar    1  LIG1       -0.0073
     12 C           2.3039    3.5003   -1.2979 C.ar    1  LIG1       -0.0521
     13 C           1.6286    2.6673   -2.1688 C.ar    1  LIG1       -0.0477
     14 C           1.3012    1.3755   -1.7864 C.ar    1  LIG1        0.0077
     15 C           1.6756    0.9328   -0.5281 C.ar    1  LIG1       -0.0477
     16 C           2.3497    1.7759    0.3412 C.ar    1  LIG1       -0.0521
     17 C           0.1384    1.1464   -4.3148 C.3     1  LIG1       -0.0135
     18 C           6.6064    6.6098    3.5845 C.3     1  LIG1       -0.0445
     19 C           7.3290    8.0211    1.6262 C.3     1  LIG1       -0.0445
     20 C           3.4186    7.8548    4.3292 C.3     1  LIG1       -0.0445
     21 C           3.1322    9.6926    2.6467 C.3     1  LIG1       -0.0445
     22 H           4.0194    5.5965    2.5971 H       1  LIG1        0.0545
     23 H           3.4942    3.6518    1.8215 H       1  LIG1        0.0831
     24 H           2.5301    4.4299   -1.5677 H       1  LIG1        0.0624
     25 H           1.4369    2.9711   -3.0615 H       1  LIG1        0.0629
     26 H           1.4363    0.0867   -0.2041 H       1  LIG1        0.0629
     27 H           2.6146    1.4624    1.2312 H       1  LIG1        0.0624
     28 H           5.8185    6.1418    4.0821 H       1  LIG1        0.0248
     29 H           7.2202    6.0230    3.3539 H       1  LIG1        0.0248
     30 H           6.9895    7.2228    4.1813 H       1  LIG1        0.0248
     31 H           7.0258    8.5177    0.8274 H       1  LIG1        0.0248
     32 H           7.9826    7.2584    1.4011 H       1  LIG1        0.0248
     33 H           7.7550    8.5414    2.2617 H       1  LIG1        0.0248
     34 H           5.3827    6.8652    0.4623 H       1  LIG1        0.0304
     35 H           5.9887    5.7046    1.2423 H       1  LIG1        0.0304
     36 H           2.3050    7.0992    2.1392 H       1  LIG1        0.0304
     37 H           3.2107    7.7788    0.9389 H       1  LIG1        0.0304
     38 H           3.7933    6.9828    4.5487 H       1  LIG1        0.0248
     39 H           2.3917    7.8405    4.4572 H       1  LIG1        0.0248
     40 H           3.8840    8.4583    5.0088 H       1  LIG1        0.0248
     41 H           2.1812    9.5512    2.6699 H       1  LIG1        0.0248
     42 H           3.3276   10.2877    3.3870 H       1  LIG1        0.0248
     43 H           3.5117   10.0858    1.6990 H       1  LIG1        0.0248
     44 H           1.0025    1.3899   -4.7440 H       1  LIG1        0.0344
     45 H          -0.3883    2.0552   -4.1041 H       1  LIG1        0.0344
     46 H          -0.3922    0.5762   -4.8102 H       1  LIG1        0.0344
@<TRIPOS>BOND
     1    46    17    1
     2    44    17    1
     3    17    45    1
     4    17     1    1
     5    25    13    1
     6     1    14    1
     7    13    14   ar
     8    13    12   ar
     9    14    15   ar
    10    24    12    1
    11    12    11   ar
    12    15    26    1
    13    15    16   ar
    14    11    16   ar
    15    11    10    1
    16    16    27    1
    17    34     6    1
    18     4    10    2
    19     4     7    1
    20    31    19    1
    21    10    23    1
    22    37     8    1
    23    35     6    1
    24     6     7    1
    25     6     5    1
    26    32    19    1
    27    19    33    1
    28    19     5    1
    29    43    21    1
    30     7     8    1
    31     7    22    1
    32     8    36    1
    33     8     9    1
    34     5     3    1
    35     5    18    1
    36    21    41    1
    37    21     9    1
    38    21    42    1
    39     3     9    1
    40     3     2    1
    41     9    20    1
    42    29    18    1
    43    18    28    1
    44    18    30    1
    45    20    39    1
    46    20    38    1
    47    20    40    1
