@<TRIPOS>MOLECULE
DL-2-Aminopropionic Acid
 13 12 0 0 0
SMALL
GASTEIGER

@<TRIPOS>ATOM
      1 O           6.9615    2.8043    3.4931 O.co2   1  ALA1       -0.2400
      2 OXT         8.0718    1.0425    4.3049 O.co2   1  ALA1       -0.2400
      3 C           7.6033    1.7433    3.3657 C.2     1  ALA1        0.4023
      4 CA          7.8134    1.1722    1.9512 C.3     1  ALA1        0.0757
      5 HA          8.7549    0.9139    1.8603 H       1  ALA1        0.0967
      6 CB          6.9697   -0.0319    1.6965 C.3     1  ALA1       -0.0110
      7 HB1         7.1739   -0.3869    0.8280 H       1  ALA1        0.0290
      8 HB2         6.0423    0.2137    1.7324 H       1  ALA1        0.0290
      9 HB3         7.1514   -0.6967    2.3646 H       1  ALA1        0.0290
     10 N           7.5210    2.2315    0.9478 N.4     1  ALA1        0.2287
     11 H1          8.0458    2.9347    1.0972 H       1  ALA1        0.2002
     12 H2          6.6689    2.4777    1.0161 H       1  ALA1        0.2002
     13 H3          7.6741    1.9159    0.1297 H       1  ALA1        0.2002
@<TRIPOS>BOND
     1    13    10    1
     2     7     6    1
     3    10    12    1
     4    10    11    1
     5    10     4    1
     6     6     8    1
     7     6     4    1
     8     6     9    1
     9     5     4    1
    10     4     3    1
    11     3     1   ar
    12     3     2   ar
