@<TRIPOS>MOLECULE
?
 52 42 0 0 0
SMALL
GASTEIGER

@<TRIPOS>ATOM
      1 S           1.9229   -4.7834    3.2757 S.3     1  LIG1        0.2666
      2 S           6.2637   -5.4734    2.1315 S.3     2  LIG2       -0.0033
      3 S           1.8880    0.3739    0.9549 S.3     3  LIG3        0.2666
      4 S           4.4415   -0.6930    4.5656 S.3     4  LIG4       -0.0033
      5 O           3.3771   -4.5845    3.5837 O.3     1  LIG1       -0.0200
      6 O           4.7684   -5.6709    1.7586 O.3     2  LIG2       -0.2702
      7 O           1.6348   -6.2302    3.3466 O.2     1  LIG1       -0.1133
      8 O           6.5118   -4.0378    2.1292 O.2     2  LIG2       -0.3454
      9 O           1.1128   -4.0606    4.2644 O.3     1  LIG1       -0.0200
     10 O           7.0080   -6.1676    1.0986 O.2     2  LIG2       -0.3454
     11 O           1.6610   -4.2785    1.9196 O.2     1  LIG1       -0.1133
     12 O           6.4478   -6.0650    3.4577 O.3     2  LIG2       -0.2683
     13 O           3.1720    0.5307    1.7232 O.3     3  LIG3       -0.0200
     14 O           3.0600   -0.7655    3.8760 O.3     4  LIG4       -0.2702
     15 O           1.5890   -1.0695    0.8696 O.2     3  LIG3       -0.1133
     16 O           4.8307    0.7107    4.6071 O.2     4  LIG4       -0.3454
     17 O           2.0694    0.9379   -0.3900 O.2     3  LIG3       -0.1133
     18 O           5.3619   -1.4846    3.7581 O.2     4  LIG4       -0.3454
     19 O           0.8260    1.0759    1.6776 O.3     3  LIG3       -0.0200
     20 O           4.2501   -1.2515    5.8921 O.3     4  LIG4       -0.2683
     21 N           2.2040   -3.0708    6.6601 N.4     5  LIG5        0.2099
     22 N           6.0793   -7.3976   -1.2703 N.4     6  LIG6        0.2099
     23 N           0.0119   -6.9081    5.5758 N.4     7  LIG7        0.2099
     24 N           0.0978    3.4140    0.1533 N.4     8  LIG8        0.2099
     25 N          -0.0809   -1.7480    3.0701 N.4     9  LIG9        0.2099
     26 N           1.9893   -1.3136   -2.2240 N.4    10  LIG10       0.2099
     27 H           4.2588   -5.5224    2.3926 H       2  LIG2        0.2427
     28 H           3.1864   -0.3442    3.0451 H       4  LIG4        0.2427
     29 H           2.5314   -2.4151    6.4818 H       1  LIG1        0.1975
     30 H           1.9056   -3.6026    5.9271 H       1  LIG1        0.1975
     31 H           2.8771   -3.5947    6.9820 H       1  LIG1        0.1975
     32 H           1.4494   -3.0048    7.3083 H       1  LIG1        0.1975
     33 H           5.3825   -7.8641   -0.9462 H       2  LIG2        0.1975
     34 H           6.1737   -6.6093   -0.7504 H       2  LIG2        0.1975
     35 H           5.9906   -7.1543   -2.0446 H       2  LIG2        0.1975
     36 H           6.7574   -7.7760   -1.3159 H       2  LIG2        0.1975
     37 H           0.4806   -6.6407    4.9266 H       3  LIG3        0.1975
     38 H           0.2552   -7.5358    6.1120 H       3  LIG3        0.1975
     39 H          -0.0973   -6.2328    6.0685 H       3  LIG3        0.1975
     40 H          -0.6733   -7.1554    5.2963 H       3  LIG3        0.1975
     41 H           0.6174    3.6351   -0.4350 H       4  LIG4        0.1975
     42 H           0.2873    2.7682    0.6417 H       4  LIG4        0.1975
     43 H          -0.6514    3.3356   -0.2828 H       4  LIG4        0.1975
     44 H           0.0152    4.0844    0.6852 H       4  LIG4        0.1975
     45 H           0.2852   -1.4761    2.4143 H       5  LIG5        0.1975
     46 H           0.0234   -1.1419    3.6106 H       5  LIG5        0.1975
     47 H          -0.8346   -1.9083    2.8711 H       5  LIG5        0.1975
     48 H           0.2070   -2.4058    3.4040 H       5  LIG5        0.1975
     49 H           2.2747   -2.0772   -1.8815 H       6  LIG6        0.1975
     50 H           2.2873   -1.0408   -2.9690 H       6  LIG6        0.1975
     51 H           1.2546   -1.4739   -2.3708 H       6  LIG6        0.1975
     52 H           2.1936   -0.5874   -1.7727 H       6  LIG6        0.1975
@<TRIPOS>BOND
     1    50    26    1
     2    51    26    1
     3    26    49    1
     4    26    52    1
     5    35    22    1
     6    36    22    1
     7    22    33    1
     8    22    34    1
     9    41    24    1
    10    17     3    2
    11    43    24    1
    12    24    42    1
    13    24    44    1
    14    15     3    2
    15     3    19    1
    16     3    13    1
    17    10     2    2
    18     6     2    1
    19     6    27    1
    20    11     1    2
    21     8     2    2
    22     2    12    1
    23    45    25    1
    24    47    25    1
    25    28    14    1
    26    25    48    1
    27    25    46    1
    28     1     7    2
    29     1     5    1
    30     1     9    1
    31    18     4    2
    32    14     4    1
    33     4    16    2
    34     4    20    1
    35    37    23    1
    36    40    23    1
    37    23    39    1
    38    23    38    1
    39    30    21    1
    40    29    21    1
    41    21    31    1
    42    21    32    1
