@<TRIPOS>MOLECULE
?
 59 61 0 0 0
SMALL
GASTEIGER

@<TRIPOS>ATOM
      1 C           0.8123   10.4786    4.9842 C.ar    1  LIG1        0.0157
      2 C           0.0924   11.3317    4.1726 C.ar    1  LIG1       -0.0475
      3 H           0.0068   12.2292    4.4044 H       1  LIG1        0.0629
      4 C          -0.5033   10.8609    3.0183 C.ar    1  LIG1       -0.0578
      5 H          -0.9796   11.4486    2.4783 H       1  LIG1        0.0621
      6 C          -0.4034    9.5246    2.6496 C.ar    1  LIG1       -0.0501
      7 C           0.2821    8.6783    3.5021 C.ar    1  LIG1       -0.0549
      8 H           0.3394    7.7769    3.2807 H       1  LIG1        0.0623
      9 C           0.8863    9.1136    4.6724 C.ar    1  LIG1       -0.0365
     10 C          -1.0298    9.0277    1.3727 C.3     1  LIG1       -0.0397
     11 H          -0.3717    8.5575    0.8541 H       1  LIG1        0.0278
     12 H          -1.3622    9.7738    0.8670 H       1  LIG1        0.0278
     13 H          -1.7548    8.4336    1.5817 H       1  LIG1        0.0278
     14 C           1.5803    8.1412    5.5849 C.3     1  LIG1       -0.0386
     15 H           1.4054    7.2442    5.2894 H       1  LIG1        0.0278
     16 H           1.2528    8.2519    6.4802 H       1  LIG1        0.0278
     17 H           2.5261    8.3056    5.5681 H       1  LIG1        0.0278
     18 C           1.8785   12.7591    6.2422 C.ar    1  LIG1        0.0337
     19 C           1.4560   13.5809    7.2814 C.ar    1  LIG1       -0.0462
     20 H           1.0518   13.2080    8.0309 H       1  LIG1        0.0629
     21 C           1.6332   14.9515    7.2065 C.ar    1  LIG1       -0.0606
     22 H           1.3570   15.4961    7.9097 H       1  LIG1        0.0618
     23 C           2.2162   15.5078    6.0983 C.ar    1  LIG1       -0.0599
     24 H           2.3249   16.4295    6.0429 H       1  LIG1        0.0618
     25 C           2.6436   14.6975    5.0637 C.ar    1  LIG1       -0.0396
     26 H           3.0341   15.0851    4.3141 H       1  LIG1        0.0636
     27 C           2.5021   13.3187    5.1191 C.ar    1  LIG1        0.0439
     28 C           2.7761   12.9084    2.7128 C.3     1  LIG1        0.0524
     29 H           3.4700   13.5487    2.4899 H       1  LIG1        0.0516
     30 H           1.9160   13.3443    2.6112 H       1  LIG1        0.0516
     31 C           2.8617   11.7152    1.7903 C.3     1  LIG1       -0.0175
     32 H           2.1358   11.1017    1.9842 H       1  LIG1        0.0829
     33 H           2.7701   12.0082    0.8708 H       1  LIG1        0.0829
     34 C           4.3982   10.6507    3.3859 C.3     1  LIG1       -0.0175
     35 H           5.2915   10.2860    3.4807 H       1  LIG1        0.0829
     36 H           3.7637    9.9679    3.6549 H       1  LIG1        0.0829
     37 C           4.2505   11.8537    4.2774 C.3     1  LIG1        0.0524
     38 H           4.3477   11.5869    5.2056 H       1  LIG1        0.0516
     39 H           4.9451   12.4997    4.0729 H       1  LIG1        0.0516
     40 C           3.1071    7.7396    0.4066 C.2     2  LIG2        0.3865
     41 C           2.5272    6.6899    1.3055 C.ar    2  LIG2        0.0634
     42 C           3.0633    6.4592    2.5615 C.ar    2  LIG2       -0.0442
     43 H           3.7837    6.9736    2.8460 H       2  LIG2        0.0627
     44 C           2.5565    5.4833    3.4074 C.ar    2  LIG2       -0.0194
     45 H           2.9462    5.3340    4.2380 H       2  LIG2        0.0654
     46 C           1.4649    4.7337    3.0032 C.ar    2  LIG2        0.1169
     47 C           0.8994    4.9654    1.7644 C.ar    2  LIG2       -0.0194
     48 H           0.1564    4.4749    1.4952 H       2  LIG2        0.0654
     49 C           1.4326    5.9234    0.9236 C.ar    2  LIG2       -0.0442
     50 H           1.0510    6.0588    0.0864 H       2  LIG2        0.0627
     51 N           2.9422   12.4592    4.0748 N.pl3   1  LIG1       -0.3189
     52 N           4.1597   11.0205    1.9643 N.4     1  LIG1        0.2292
     53 H           4.8244   11.5580    1.6810 H       1  LIG1        0.2015
     54 H           4.1693   10.2756    1.4578 H       1  LIG1        0.2015
     55 O           3.9628    8.5288    0.8837 O.co2   2  LIG2       -0.2406
     56 O           2.7388    7.7805   -0.8063 O.co2   2  LIG2       -0.2406
     57 O           0.8833    3.7737    3.7872 O.3     2  LIG2       -0.5068
     58 H           1.3961    3.5684    4.3941 H       2  LIG2        0.2921
     59 S           1.6584   11.0164    6.4505 S.3     1  LIG1       -0.0873
@<TRIPOS>BOND
     1    56    40   ar
     2    50    49    1
     3    40    55   ar
     4    40    41    1
     5    11    10    1
     6    12    10    1
     7    33    31    1
     8    49    41   ar
     9    49    47   ar
    10    41    42   ar
    11    10    13    1
    12    10     6    1
    13    54    52    1
    14    48    47    1
    15    53    52    1
    16    47    46   ar
    17    31    52    1
    18    31    32    1
    19    31    28    1
    20    52    34    1
    21     5     4    1
    22    29    28    1
    23    42    43    1
    24    42    44   ar
    25    30    28    1
    26     6     4   ar
    27     6     7   ar
    28    28    51    1
    29    46    44   ar
    30    46    57    1
    31     4     2   ar
    32     8     7    1
    33    34    35    1
    34    34    36    1
    35    34    37    1
    36    44    45    1
    37     7     9   ar
    38    57    58    1
    39    39    37    1
    40    51    37    1
    41    51    27    1
    42     2     3    1
    43     2     1   ar
    44    37    38    1
    45    26    25    1
    46     9     1   ar
    47     9    14    1
    48     1    59    1
    49    25    27   ar
    50    25    23   ar
    51    27    18   ar
    52    15    14    1
    53    17    14    1
    54    14    16    1
    55    24    23    1
    56    23    21   ar
    57    18    59    1
    58    18    19   ar
    59    21    19   ar
    60    21    22    1
    61    19    20    1
