@<TRIPOS>MOLECULE
H2 O, C N S, C3 H6 N6, C3 H7 N6
 74 70 0 0 0
SMALL
GASTEIGER

@<TRIPOS>ATOM
      1 O           2.4785   16.3887    1.8218 O.3     1  HOH1       -0.4105
      2 H           3.2970   16.2716    1.5502 H       0  HOH0        0.2052
      3 H           1.9279   16.1825    1.1813 H       0  HOH0        0.2052
      4 O          11.0556    7.8633    8.1817 O.3     2  HOH2       -0.4105
      5 H          11.0700    7.2797    7.5360 H       0  HOH0        0.2052
      6 H          10.4200    8.4395    8.0368 H       0  HOH0        0.2052
      7 S           6.8276    8.9356    1.9355 S.3     1  HOH1        0.0378
      8 C           7.5165   10.0445    2.9380 C.1     1  HOH1        0.1451
      9 N           7.9980   10.8322    3.6517 N.1     1  HOH1       -0.1829
     10 S           4.4964   13.2109    1.8712 S.3     2  HOH2        0.0378
     11 C           5.2678   14.2176    2.8983 C.1     2  HOH2        0.1451
     12 N           5.8447   14.9196    3.6319 N.1     2  HOH2       -0.1829
     13 N           1.1424    8.6178    5.8538 N.ar    3  LIG3       -0.1814
     14 N           3.1770    8.3546    4.6198 N.ar    3  LIG3       -0.1814
     15 N           2.0920   10.4834    4.7003 N.ar    3  LIG3       -0.1814
     16 N           2.1834    6.5960    5.7243 N.pl3   3  LIG3       -0.3273
     17 H           1.5487    6.2652    6.2363 H       3  LIG3        0.1452
     18 H           2.8331    6.0771    5.4375 H       3  LIG3        0.1452
     19 N           0.1356   10.6524    5.8841 N.pl3   3  LIG3       -0.3273
     20 H           0.0998   11.5058    5.6723 H       3  LIG3        0.1452
     21 H          -0.4979   10.2958    6.3807 H       3  LIG3        0.1452
     22 N           4.0310   10.1765    3.5363 N.pl3   3  LIG3       -0.3273
     23 H           4.0114   11.0303    3.3230 H       3  LIG3        0.1452
     24 H           4.6888    9.6668    3.2501 H       3  LIG3        0.1452
     25 C           2.1599    7.8785    5.3849 C.ar    3  LIG3        0.2184
     26 C           3.0716    9.6597    4.2886 C.ar    3  LIG3        0.2184
     27 C           1.1456    9.9023    5.4549 C.ar    3  LIG3        0.2184
     28 C           6.0439    3.1427    0.6053 C.ar    4  LIG4        0.2184
     29 C           4.9833    5.1454    0.6741 C.ar    4  LIG4        0.2184
     30 C           4.0860    3.3720    1.7343 C.ar    4  LIG4        0.2184
     31 N           5.0677    2.5592    1.3483 N.ar    4  LIG4       -0.1814
     32 N           6.0495    4.4465    0.2426 N.ar    4  LIG4       -0.1814
     33 N           3.9546    4.6781    1.4112 N.ar    4  LIG4       -0.1814
     34 N           7.0501    2.3907    0.1854 N.pl3   4  LIG4       -0.3273
     35 H           7.6863    2.7439   -0.3090 H       4  LIG4        0.1452
     36 H           7.0816    1.5382    0.4009 H       4  LIG4        0.1452
     37 N           3.1306    2.8534    2.5018 N.pl3   4  LIG4       -0.3273
     38 H           3.1652    2.0048    2.7341 H       4  LIG4        0.1452
     39 H           2.4646    3.3578    2.7772 H       4  LIG4        0.1452
     40 N           4.9550    6.4389    0.3522 N.pl3   4  LIG4       -0.3273
     41 H           5.6107    6.7896   -0.1174 H       4  LIG4        0.1452
     42 H           4.2801    6.9416    0.6103 H       4  LIG4        0.1452
     43 C           7.8864    7.5753    9.7959 C.cat   5  LIG5        0.3763
     44 C           8.9512    5.4597    9.7866 C.cat   5  LIG5        0.3763
     45 C           7.0026    5.8070   10.9004 C.3     5  LIG5        0.4194
     46 N           6.8957    7.1023   10.5435 N.2     5  LIG5       -0.0444
     47 N           7.9826    4.9487   10.5260 N.2     5  LIG5       -0.0444
     48 N           8.8987    6.7786    9.3725 N.pl3   5  LIG5       -0.1506
     49 H           9.5180    7.0978    8.8354 H       5  LIG5        0.2568
     50 N           6.0164    5.3081   11.6457 N.3     5  LIG5       -0.2526
     51 H           5.3399    5.8197   11.8806 H       5  LIG5        0.1253
     52 H           6.0419    4.4670   11.9037 H       5  LIG5        0.1253
     53 N           9.9542    4.7262    9.3725 N.pl3   5  LIG5       -0.2512
     54 H           9.9936    3.8740    9.5866 H       5  LIG5        0.2412
     55 H          10.5888    5.0867    8.8808 H       5  LIG5        0.2412
     56 N           7.8834    8.8489    9.4192 N.pl3   5  LIG5       -0.2512
     57 H           7.2242    9.3781    9.6646 H       5  LIG5        0.2412
     58 H           8.5390    9.1627    8.9243 H       5  LIG5        0.2412
     59 N          -0.1905   13.5234    4.9930 N.2     6  LIG6       -0.0444
     60 N          -1.2794   15.6646    4.9755 N.2     6  LIG6       -0.0444
     61 N           0.7269   15.3409    3.8045 N.pl3   6  LIG6       -0.1506
     62 H           1.3446   15.6579    3.2627 H       6  LIG6        0.2568
     63 N           1.7758   13.2865    3.8302 N.pl3   6  LIG6       -0.2512
     64 H           1.8082   12.4365    4.0561 H       6  LIG6        0.2412
     65 H           2.4130   13.6335    3.3319 H       6  LIG6        0.2412
     66 N          -2.1383   13.8774    6.0987 N.3     6  LIG6       -0.2526
     67 H          -2.1290   13.0276    6.3278 H       6  LIG6        0.1253
     68 H          -2.7982   14.3966    6.3615 H       6  LIG6        0.1253
     69 N          -0.3055   17.4014    3.8255 N.pl3   6  LIG6       -0.2512
     70 H          -0.9713   17.9254    4.0629 H       6  LIG6        0.2412
     71 H           0.3471   17.7172    3.3270 H       6  LIG6        0.2412
     72 C          -1.1633   14.3721    5.3592 C.3     6  LIG6        0.4194
     73 C          -0.2859   16.1451    4.2162 C.cat   6  LIG6        0.3763
     74 C           0.7958   14.0237    4.2314 C.cat   6  LIG6        0.3763
@<TRIPOS>BOND
     1    35    34    1
     2    41    40    1
     3    34    36    1
     4    34    28    1
     5    32    28   ar
     6    32    29   ar
     7    40    42    1
     8    40    29    1
     9    28    31   ar
    10    29    33   ar
    11     3     1    1
    12    31    30   ar
    13    33    30   ar
    14     2     1    1
    15    30    37    1
    16    10    11    1
    17     7     8    1
    18    37    38    1
    19    37    39    1
    20    11    12    3
    21     8     9    3
    22    24    22    1
    23    62    61    1
    24    23    22    1
    25    71    69    1
    26    65    63    1
    27    22    26    1
    28    61    73    1
    29    61    74    1
    30    69    70    1
    31    69    73    1
    32    63    64    1
    33    63    74    1
    34    73    60    2
    35    74    59    2
    36    26    14   ar
    37    26    15   ar
    38    14    25   ar
    39    15    27   ar
    40    60    72    1
    41    59    72    1
    42    72    66    1
    43    25    16    1
    44    25    13   ar
    45    18    16    1
    46    27    13   ar
    47    27    19    1
    48    20    19    1
    49    16    17    1
    50    19    21    1
    51    66    67    1
    52    66    68    1
    53     5     4    1
    54     6     4    1
    55    49    48    1
    56    55    53    1
    57    58    56    1
    58    53    54    1
    59    53    44    1
    60    48    44    1
    61    48    43    1
    62    56    57    1
    63    56    43    1
    64    44    47    2
    65    43    46    2
    66    47    45    1
    67    46    45    1
    68    45    50    1
    69    50    51    1
    70    50    52    1
