@<TRIPOS>MOLECULE
4-aminobenzoic acid ethyl ester
 23 23 0 0 0
SMALL
GASTEIGER

@<TRIPOS>ATOM
      1 O          -0.1605    4.3772    1.8556 O.3     1  LIG1       -0.4614
      2 O          -0.2289    6.1412    3.2064 O.2     1  LIG1       -0.2450
      3 N           5.1956    3.2556    5.0279 N.pl3   1  LIG1       -0.3580
      4 H           5.3807    2.4858    4.6987 H       1  LIG1        0.1423
      5 H           5.1253    3.1906    5.8764 H       1  LIG1        0.1423
      6 C           1.5549    4.5836    3.3795 C.ar    1  LIG1        0.0591
      7 C           3.3579    2.9826    3.4551 C.ar    1  LIG1       -0.0403
      8 H           3.7584    2.2206    3.1040 H       1  LIG1        0.0636
      9 C           0.3179    5.1109    2.8455 C.2     1  LIG1        0.3392
     10 C           2.1684    5.2595    4.4475 C.ar    1  LIG1       -0.0460
     11 H           1.7570    6.0102    4.8109 H       1  LIG1        0.0626
     12 C           3.3662    4.8287    4.9620 C.ar    1  LIG1       -0.0403
     13 H           3.7734    5.3193    5.6374 H       1  LIG1        0.0636
     14 C           2.1556    3.4222    2.9528 C.ar    1  LIG1       -0.0460
     15 H           1.7315    2.9140    2.2994 H       1  LIG1        0.0626
     16 C          -1.3546    4.8674    1.2045 C.3     1  LIG1        0.0900
     17 H          -1.1778    5.7156    0.7681 H       1  LIG1        0.0695
     18 H          -2.0645    4.9943    1.8531 H       1  LIG1        0.0695
     19 C           3.9786    3.6843    4.4963 C.ar    1  LIG1        0.0246
     20 C          -1.7560    3.8149    0.1756 C.3     1  LIG1       -0.0306
     21 H          -1.0407    3.6910   -0.4535 H       1  LIG1        0.0262
     22 H          -2.5437    4.1064   -0.2902 H       1  LIG1        0.0262
     23 H          -1.9378    2.9842    0.6218 H       1  LIG1        0.0262
@<TRIPOS>BOND
     1    21    20    1
     2    22    20    1
     3    20    23    1
     4    20    16    1
     5    17    16    1
     6    16    18    1
     7    16     1    1
     8     1     9    1
     9    15    14    1
    10     9     2    2
    11     9     6    1
    12    14     6   ar
    13    14     7   ar
    14     8     7    1
    15     6    10   ar
    16     7    19   ar
    17    10    11    1
    18    10    12   ar
    19    19    12   ar
    20    19     3    1
    21     4     3    1
    22    12    13    1
    23     3     5    1
