@<TRIPOS>MOLECULE
Piperazine-1,4-diium diiodide diiodine
 11 8 0 0 0
SMALL
GASTEIGER

@<TRIPOS>ATOM
      1 I           4.6363    3.7810    5.6351 I       1  LIG1        0.0000
      2 I           0.5765    2.0487    4.1090 I       2  LIG2        0.0000
      3 N           7.9091    4.7157    6.5998 N.4     3  LIG3        0.2345
      4 H           8.4771    4.0705    6.3323 H       3  LIG3        0.2018
      5 H           7.0886    4.3518    6.6675 H       3  LIG3        0.2018
      6 C           7.8834    5.8078    5.5752 C.3     3  LIG3        0.0076
      7 H           7.5644    5.4528    4.7302 H       3  LIG3        0.0867
      8 H           8.7814    6.1478    5.4397 H       3  LIG3        0.0867
      9 C           8.3374    5.2275    7.9449 C.3     3  LIG3        0.0076
     10 H           9.2521    5.5474    7.8946 H       3  LIG3        0.0867
     11 H           8.3056    4.5052    8.5916 H       3  LIG3        0.0867
@<TRIPOS>BOND
     1     7     6    1
     2     8     6    1
     3     6     3    1
     4     4     3    1
     5     3     5    1
     6     3     9    1
     7    10     9    1
     8     9    11    1
