@<TRIPOS>MOLECULE
?
 33 34 0 0 0
SMALL
GASTEIGER

@<TRIPOS>ATOM
      1 S           6.1775    6.4688    5.6260 S.3     1  LIG1        0.0526
      2 S           3.5868    7.4196    6.4685 S.O2    1  LIG1        0.0716
      3 O           2.4070    7.4352    5.6645 O.2     1  LIG1       -0.1520
      4 O           3.8281    6.2927    7.3128 O.2     1  LIG1       -0.1520
      5 N           4.8917    7.5839    5.4962 N.3     1  LIG1       -0.0967
      6 O           6.3087    5.7745    4.3345 O.3     1  LIG1       -0.1441
      7 C           7.4700    7.6977    5.6711 C.3     1  LIG1        0.0453
      8 H           7.5395    8.0361    6.5769 H       1  LIG1        0.0447
      9 H           8.3109    7.2650    5.4566 H       1  LIG1        0.0447
     10 C           7.2904    8.8479    4.7569 C.2     1  LIG1       -0.0740
     11 H           8.0535    9.3351    4.5441 H       1  LIG1        0.0578
     12 C           6.1953    9.2407    4.2339 C.2     1  LIG1       -0.0677
     13 H           6.2334    9.9991    3.6976 H       1  LIG1        0.0585
     14 C           4.8396    8.5864    4.4005 C.3     1  LIG1        0.0598
     15 H           4.2171    9.2884    4.6844 H       1  LIG1        0.0531
     16 C           4.3090    8.0254    3.1136 C.3     1  LIG1       -0.0433
     17 H           4.8321    7.2621    2.8561 H       1  LIG1        0.0249
     18 H           4.3603    8.6943    2.4272 H       1  LIG1        0.0249
     19 H           3.3936    7.7590    3.2323 H       1  LIG1        0.0249
     20 C           3.5798    8.8946    7.4531 C.ar    1  LIG1        0.1064
     21 C           4.6550    9.1630    8.2682 C.ar    1  LIG1       -0.0351
     22 H           5.3966    8.6019    8.2665 H       1  LIG1        0.0637
     23 C           4.6219   10.2694    9.0849 C.ar    1  LIG1       -0.0570
     24 H           5.3478   10.4561    9.6343 H       1  LIG1        0.0621
     25 C           3.5169   11.1105    9.0964 C.ar    1  LIG1       -0.0503
     26 C           2.4864   10.8178    8.2747 C.ar    1  LIG1       -0.0570
     27 H           1.7440   11.3779    8.2747 H       1  LIG1        0.0621
     28 C           2.4848    9.7172    7.4333 C.ar    1  LIG1       -0.0351
     29 H           1.7638    9.5431    6.8723 H       1  LIG1        0.0637
     30 C           3.4888   12.3229   10.0155 C.3     1  LIG1       -0.0397
     31 H           3.0269   12.0983   10.8256 H       1  LIG1        0.0278
     32 H           3.0343   13.0463    9.5782 H       1  LIG1        0.0278
     33 H           4.3876   12.5884   10.2217 H       1  LIG1        0.0278
@<TRIPOS>BOND
     1    18    16    1
     2    17    16    1
     3    16    19    1
     4    16    14    1
     5    13    12    1
     6    12    14    1
     7    12    10    2
     8     6     1    1
     9    14    15    1
    10    14     5    1
    11    11    10    1
    12    10     7    1
    13     9     7    1
    14     5     1    1
    15     5     2    1
    16     1     7    1
    17     3     2    2
    18     7     8    1
    19     2     4    2
    20     2    20    1
    21    29    28    1
    22    28    20   ar
    23    28    26   ar
    24    20    21   ar
    25    22    21    1
    26    21    23   ar
    27    26    27    1
    28    26    25   ar
    29    23    25   ar
    30    23    24    1
    31    25    30    1
    32    32    30    1
    33    30    33    1
    34    30    31    1
