@<TRIPOS>MOLECULE
C7 H6 O5, H2 O
 21 20 0 0 0
SMALL
GASTEIGER

@<TRIPOS>ATOM
      1 O           3.9112    0.7400   10.8791 O.3     1  LIG1       -0.4771
      2 O           5.6492    1.4665    9.7185 O.2     1  LIG1       -0.2451
      3 O           0.4475   -0.5049    7.5224 O.3     1  LIG1       -0.5032
      4 O           1.5187    0.0272    5.1103 O.3     1  LIG1       -0.5009
      5 O           4.0954    0.9703    4.8957 O.3     1  LIG1       -0.5032
      6 O           6.9611    1.7672    1.9562 O.3     2  HOH2       -0.4105
      7 C           3.7615    0.6338    8.5400 C.ar    1  LIG1        0.0660
      8 C           2.4495    0.1594    8.6174 C.ar    1  LIG1       -0.0023
      9 C           1.7482   -0.0587    7.4553 C.ar    1  LIG1        0.1628
     10 C           2.3024    0.2195    6.2158 C.ar    1  LIG1        0.2006
     11 C           3.6122    0.6918    6.1442 C.ar    1  LIG1        0.1628
     12 C           4.3274    0.8801    7.3078 C.ar    1  LIG1       -0.0023
     13 C           4.5484    0.9852    9.7497 C.2     1  LIG1        0.3370
     14 H           4.3145    1.0352   11.5436 H       1  LIG1        0.2954
     15 H           1.9949   -0.0380    9.4562 H       1  LIG1        0.0663
     16 H           0.2016   -0.8823    6.8013 H       1  LIG1        0.2923
     17 H           1.9878    0.2572    4.3221 H       1  LIG1        0.2924
     18 H           4.8535    1.3510    4.9628 H       1  LIG1        0.2923
     19 H           5.1963    1.1974    7.2214 H       1  LIG1        0.0663
     20 H           6.3187    1.3311    2.2244 H       0  HOH0        0.2052
     21 H           7.3776    1.3170    1.4273 H       0  HOH0        0.2052
@<TRIPOS>BOND
     1    21     6    1
     2     6    20    1
     3    17     4    1
     4     5    18    1
     5     5    11    1
     6     4    10    1
     7    11    10   ar
     8    11    12   ar
     9    10     9   ar
    10    16     3    1
    11    19    12    1
    12    12     7   ar
    13     9     3    1
    14     9     8   ar
    15     7     8   ar
    16     7    13    1
    17     8    15    1
    18     2    13    2
    19    13     1    1
    20     1    14    1
