@<TRIPOS>MOLECULE
(2'R,3'R)-methyl 2-azido-2,6-dideoxy-3,4-O-(2',3'-dimethoxybutane- 2',3'-diyl)-\a-L-glucopyranoside.
 90 92 0 0 0
SMALL
GASTEIGER

@<TRIPOS>ATOM
      1 C           0.4006    5.6838    6.3918 C.3     1  LIG1        0.1906
      2 H          -0.5697    5.5262    6.2067 H       1  LIG1        0.0935
      3 O           1.1182    4.4771    6.2086 O.3     1  LIG1       -0.3521
      4 C           0.5868    6.0539    7.8723 C.3     1  LIG1        0.2119
      5 H           0.0342    6.8696    8.0454 H       1  LIG1        0.0695
      6 C           2.0251    6.4323    8.1169 C.3     1  LIG1        0.1245
      7 H           2.6068    5.6344    7.9533 H       1  LIG1        0.0649
      8 O           2.1710    6.8517    9.4829 O.3     1  LIG1       -0.3359
      9 C           2.4267    7.5340    7.1819 C.3     1  LIG1        0.1165
     10 H           1.8550    8.3371    7.3517 H       1  LIG1        0.0650
     11 O           3.7985    7.8693    7.4220 O.3     1  LIG1       -0.3359
     12 C           2.2596    7.0903    5.7402 C.3     1  LIG1        0.0877
     13 H           2.8534    6.3061    5.5590 H       1  LIG1        0.0621
     14 O           0.8817    6.7119    5.5403 O.3     1  LIG1       -0.3432
     15 C           2.5464    8.1867    4.7416 C.3     1  LIG1       -0.0361
     16 H           2.3552    7.8619    3.8370 H       1  LIG1        0.0255
     17 H           3.4895    8.4453    4.8039 H       1  LIG1        0.0255
     18 H           1.9808    8.9625    4.9359 H       1  LIG1        0.0255
     19 C           0.7831    3.8369    4.9703 C.3     1  LIG1        0.0395
     20 H          -0.1882    3.7276    4.9114 H       1  LIG1        0.0525
     21 H           1.2138    2.9581    4.9298 H       1  LIG1        0.0525
     22 H           1.0961    4.3888    4.2238 H       1  LIG1        0.0525
     23 N           0.0574    4.9764    8.7398 N.2     1  LIG1        0.1319
     24 N           0.8686    4.0408    8.9365 N.2     1  LIG1        0.2548
     25 N           1.5309    3.1378    9.2165 N.2     1  LIG1        0.3543
     26 C           3.5479    7.1997    9.7739 C.3     1  LIG1        0.2221
     27 O           4.3843    6.0991    9.5477 O.3     1  LIG1       -0.3478
     28 C           4.1669    4.9533   10.4161 C.3     1  LIG1        0.0399
     29 H           4.6249    5.0983   11.2716 H       1  LIG1        0.0525
     30 H           4.5232    4.1470    9.9885 H       1  LIG1        0.0525
     31 H           3.2067    4.8408   10.5748 H       1  LIG1        0.0525
     32 C           3.5298    7.6559   11.2099 C.3     1  LIG1       -0.0052
     33 H           3.1071    6.9684   11.7658 H       1  LIG1        0.0283
     34 H           3.0225    8.4905   11.2808 H       1  LIG1        0.0283
     35 H           4.4487    7.8041   11.5171 H       1  LIG1        0.0283
     36 C           4.0502    8.2761    8.7745 C.3     1  LIG1        0.2221
     37 O           3.2822    9.4345    9.0839 O.3     1  LIG1       -0.3478
     38 C           3.5419   10.5793    8.2852 C.3     1  LIG1        0.0399
     39 H           4.4507   10.9009    8.4629 H       1  LIG1        0.0525
     40 H           2.8977   11.2836    8.5059 H       1  LIG1        0.0525
     41 H           3.4573   10.3428    7.3394 H       1  LIG1        0.0525
     42 C           5.5378    8.5116    8.8500 C.3     1  LIG1       -0.0052
     43 H           5.8075    9.1276    8.1375 H       1  LIG1        0.0283
     44 H           6.0098    7.6601    8.7422 H       1  LIG1        0.0283
     45 H           5.7632    8.9016    9.7214 H       1  LIG1        0.0283
     46 C           2.4126    8.3676   -1.3660 C.3     2  LIG2        0.1906
     47 H           2.6360    7.4110   -1.5532 H       2  LIG2        0.0935
     48 O           3.5872    9.1360   -1.4670 O.3     2  LIG2       -0.3521
     49 C           1.9446    8.4895    0.0853 C.3     2  LIG2        0.2119
     50 H           1.1373    7.9071    0.1811 H       2  LIG2        0.0695
     51 C           1.4906    9.9191    0.3370 C.3     2  LIG2        0.1245
     52 H           2.2656   10.5425    0.2333 H       2  LIG2        0.0649
     53 O           0.9713   10.0137    1.6729 O.3     2  LIG2       -0.3359
     54 C           0.4237   10.2755   -0.6431 C.3     2  LIG2        0.1165
     55 H          -0.3664    9.6773   -0.5065 H       2  LIG2        0.0650
     56 O           0.0332   11.6431   -0.4144 O.3     2  LIG2       -0.3359
     57 C           0.9220   10.1315   -2.0729 C.3     2  LIG2        0.0877
     58 H           1.6637   10.7822   -2.2408 H       2  LIG2        0.0621
     59 O           1.4091    8.7765   -2.2423 O.3     2  LIG2       -0.3432
     60 C          -0.1802   10.3312   -3.1021 C.3     2  LIG2       -0.0361
     61 H           0.1862   10.2019   -4.0028 H       2  LIG2        0.0255
     62 H          -0.5405   11.2394   -3.0236 H       2  LIG2        0.0255
     63 H          -0.8958    9.6805   -2.9437 H       2  LIG2        0.0255
     64 C           4.2887    8.9363   -2.7101 C.3     2  LIG2        0.0395
     65 H           4.4860    7.9828   -2.8240 H       2  LIG2        0.0525
     66 H           5.1261    9.4450   -2.6982 H       2  LIG2        0.0525
     67 H           3.7291    9.2443   -3.4533 H       2  LIG2        0.0525
     68 N           2.9521    7.9860    1.0332 N.2     2  LIG2        0.1319
     69 N           3.8499    8.7943    1.3037 N.2     2  LIG2        0.2548
     70 N           4.7487    9.4314    1.6567 N.2     2  LIG2        0.3543
     71 C           0.5012   11.3246    1.9833 C.3     2  LIG2        0.2221
     72 O           1.5540   12.2549    1.9237 O.3     2  LIG2       -0.3478
     73 C           2.6964   11.9889    2.7639 C.3     2  LIG2        0.0399
     74 H           2.5082   12.2917    3.6774 H       2  LIG2        0.0525
     75 H           3.4775   12.4683    2.4158 H       2  LIG2        0.0525
     76 H           2.8806   11.0260    2.7688 H       2  LIG2        0.0525
     77 C          -0.1218   11.2016    3.3588 C.3     2  LIG2       -0.0052
     78 H           0.5516   10.8810    3.9935 H       2  LIG2        0.0283
     79 H          -0.8676   10.5667    3.3244 H       2  LIG2        0.0283
     80 H          -0.4519   12.0783    3.6467 H       2  LIG2        0.0283
     81 C          -0.5143   11.8155    0.8859 C.3     2  LIG2        0.2221
     82 O          -1.6577   11.0029    1.0830 O.3     2  LIG2       -0.3478
     83 C          -2.7357   11.2815    0.1937 C.3     2  LIG2        0.0399
     84 H          -3.1131   12.1613    0.4021 H       2  LIG2        0.0525
     85 H          -3.4281   10.5961    0.2947 H       2  LIG2        0.0525
     86 H          -2.4065   11.2794   -0.7306 H       2  LIG2        0.0525
     87 C          -0.8354   13.3040    1.0231 C.3     2  LIG2       -0.0052
     88 H          -1.3638   13.5973    0.2517 H       2  LIG2        0.0283
     89 H          -0.0000   13.8159    1.0590 H       2  LIG2        0.0283
     90 H          -1.3457   13.4543    1.8448 H       2  LIG2        0.0283
@<TRIPOS>BOND
     1    61    60    1
     2    67    64    1
     3    60    62    1
     4    60    63    1
     5    60    57    1
     6    65    64    1
     7    64    66    1
     8    64    48    1
     9    59    57    1
    10    59    46    1
    11    58    57    1
    12    57    54    1
    13    47    46    1
    14    48    46    1
    15    46    49    1
    16    86    83    1
    17    54    55    1
    18    54    56    1
    19    54    51    1
    20    56    81    1
    21    49    50    1
    22    49    51    1
    23    49    68    1
    24    83    85    1
    25    83    84    1
    26    83    82    1
    27    52    51    1
    28    88    87    1
    29    51    53    1
    30    81    87    1
    31    81    82    1
    32    81    71    1
    33    87    89    1
    34    87    90    1
    35    68    69    2
    36    69    70    2
    37    53    71    1
    38    72    71    1
    39    72    73    1
    40    71    77    1
    41    75    73    1
    42    73    76    1
    43    73    74    1
    44    79    77    1
    45    77    80    1
    46    77    78    1
    47    16    15    1
    48    22    19    1
    49    15    17    1
    50    15    18    1
    51    15    12    1
    52    20    19    1
    53    21    19    1
    54    19     3    1
    55    14    12    1
    56    14     1    1
    57    13    12    1
    58    12     9    1
    59     2     1    1
    60     3     1    1
    61     1     4    1
    62     9    10    1
    63     9    11    1
    64     9     6    1
    65    41    38    1
    66    11    36    1
    67     4     5    1
    68     4     6    1
    69     4    23    1
    70     7     6    1
    71     6     8    1
    72    43    42    1
    73    38    39    1
    74    38    40    1
    75    38    37    1
    76    23    24    2
    77    44    42    1
    78    36    42    1
    79    36    37    1
    80    36    26    1
    81    42    45    1
    82    24    25    2
    83     8    26    1
    84    27    26    1
    85    27    28    1
    86    26    32    1
    87    30    28    1
    88    28    31    1
    89    28    29    1
    90    32    34    1
    91    32    35    1
    92    32    33    1
