@<TRIPOS>MOLECULE
?
 47 50 0 0 0
SMALL
GASTEIGER

@<TRIPOS>ATOM
      1 S          -6.7102   -1.3834   -2.2626 S.3     1  LIG1        0.0000
      2 B          -7.6156    0.1489   -3.3473 B       1  LIG1        0.0000
      3 C          -7.5661    1.4644   -2.3889 C.ar    1  LIG1        0.0000
      4 C          -6.4881    1.7816   -1.5817 C.ar    1  LIG1        0.0000
      5 C          -6.4305    2.8747   -0.7504 C.ar    1  LIG1        0.0000
      6 C          -7.4666    3.7686   -0.7507 C.ar    1  LIG1        0.0000
      7 C          -8.5375    3.5440   -1.5769 C.ar    1  LIG1        0.0000
      8 C          -8.5724    2.4143   -2.3631 C.ar    1  LIG1        0.0000
      9 C          -6.6151    0.2838   -4.6246 C.ar    1  LIG1        0.0000
     10 C          -6.1807   -0.8194   -5.3487 C.ar    1  LIG1        0.0000
     11 C          -5.3597   -0.7653   -6.4451 C.ar    1  LIG1        0.0000
     12 C          -4.9203    0.4527   -6.8902 C.ar    1  LIG1        0.0000
     13 C          -5.3241    1.5849   -6.2335 C.ar    1  LIG1        0.0000
     14 C          -6.1444    1.4828   -5.1303 C.ar    1  LIG1        0.0000
     15 C          -9.1198   -0.3575   -3.6904 C.ar    1  LIG1        0.0000
     16 C         -10.0717   -0.5147   -2.6965 C.ar    1  LIG1        0.0000
     17 C         -11.3525   -0.9664   -2.8908 C.ar    1  LIG1        0.0000
     18 C         -11.7633   -1.2833   -4.1660 C.ar    1  LIG1        0.0000
     19 C         -10.8856   -1.1208   -5.2011 C.ar    1  LIG1        0.0000
     20 C          -9.6040   -0.6664   -4.9519 C.ar    1  LIG1        0.0000
     21 C          -7.0041   -1.1872   -0.4709 C.3     1  LIG1        0.0000
     22 C          -7.5105   -2.5428   -0.0061 C.3     1  LIG1        0.0000
     23 C          -8.4318   -3.0847   -1.0748 C.3     1  LIG1        0.0000
     24 C          -7.7199   -2.9019   -2.3999 C.3     1  LIG1        0.0000
     25 F          -5.3988    0.9820   -1.5834 F       1  LIG1        0.0000
     26 F          -5.3747    3.0678    0.0467 F       1  LIG1        0.0000
     27 F          -7.4394    4.8420    0.0405 F       1  LIG1        0.0000
     28 F          -9.5481    4.4248   -1.6134 F       1  LIG1        0.0000
     29 F          -9.6520    2.2872   -3.1529 F       1  LIG1        0.0000
     30 F          -6.6108   -2.0501   -4.9861 F       1  LIG1        0.0000
     31 F          -4.9913   -1.8829   -7.0818 F       1  LIG1        0.0000
     32 F          -4.1120    0.5415   -7.9502 F       1  LIG1        0.0000
     33 F          -4.9290    2.7864   -6.6764 F       1  LIG1        0.0000
     34 F          -6.4972    2.6559   -4.5765 F       1  LIG1        0.0000
     35 F          -9.7557   -0.1910   -1.4190 F       1  LIG1        0.0000
     36 F         -12.1975   -1.0953   -1.8646 F       1  LIG1        0.0000
     37 F         -12.9995   -1.7315   -4.3744 F       1  LIG1        0.0000
     38 F         -11.2713   -1.3885   -6.4499 F       1  LIG1        0.0000
     39 F          -8.8399   -0.5177   -6.0469 F       1  LIG1        0.0000
     40 H          -7.6478   -0.4876   -0.3497 H       1  LIG1        0.0000
     41 H          -9.3066   -2.5577   -1.0697 H       1  LIG1        0.0000
     42 H          -6.1731   -0.9508   -0.0652 H       1  LIG1        0.0000
     43 H          -8.3052   -2.8216   -3.1348 H       1  LIG1        0.0000
     44 H          -6.7137   -3.1746    0.0828 H       1  LIG1        0.0000
     45 H          -7.0372   -3.5934   -2.5978 H       1  LIG1        0.0000
     46 H          -8.6176   -4.0232   -0.9311 H       1  LIG1        0.0000
     47 H          -7.9475   -2.4394    0.8484 H       1  LIG1        0.0000
@<TRIPOS>BOND
     1    32    12    1
     2    31    11    1
     3    12    11   ar
     4    12    13   ar
     5    33    13    1
     6    38    19    1
     7    11    10   ar
     8    13    14   ar
     9    39    20    1
    10    10    30    1
    11    10     9   ar
    12    19    20   ar
    13    19    18   ar
    14    14     9   ar
    15    14    34    1
    16    20    15   ar
    17     9     2    1
    18    37    18    1
    19    18    17   ar
    20    15     2    1
    21    15    16   ar
    22     2     3    1
    23     2     1    1
    24    29     8    1
    25    43    24    1
    26    17    16   ar
    27    17    36    1
    28    16    35    1
    29    45    24    1
    30    24     1    1
    31    24    23    1
    32     3     8   ar
    33     3     4   ar
    34     8     7   ar
    35     1    21    1
    36    28     7    1
    37    25     4    1
    38     4     5   ar
    39     7     6   ar
    40    23    41    1
    41    23    46    1
    42    23    22    1
    43     6     5   ar
    44     6    27    1
    45     5    26    1
    46    21    40    1
    47    21    42    1
    48    21    22    1
    49    22    44    1
    50    22    47    1
