@<TRIPOS>MOLECULE
racemic 7-oxabicyclo[2.2.1]heptane-5-exo-iodo-6-endo-hydroxy-2-endo- carboxylic acid-\g-lactone
 18 20 0 0 0
SMALL
GASTEIGER

@<TRIPOS>ATOM
      1 I          -3.3981    1.8639    3.6946 I       1  LIG1       -0.0751
      2 O          -0.7829    3.0502    5.6401 O.3     1  LIG1       -0.3677
      3 O          -2.2161    1.4335    9.7728 O.2     1  LIG1       -0.2504
      4 O          -3.2527    2.0780    7.9134 O.3     1  LIG1       -0.4573
      5 C          -1.4967    3.2987    6.8495 C.3     1  LIG1        0.1099
      6 C          -0.9370    2.3249    7.8931 C.3     1  LIG1        0.0884
      7 C          -2.1328    1.9010    8.6810 C.2     1  LIG1        0.3133
      8 C          -0.4557    1.1695    6.9655 C.3     1  LIG1       -0.0100
      9 C          -0.9853    1.6276    5.5910 C.3     1  LIG1        0.0752
     10 C          -2.5170    1.5205    5.6308 C.3     1  LIG1        0.0768
     11 C          -2.8714    2.6402    6.6354 C.3     1  LIG1        0.1437
     12 H          -1.5246    4.2088    7.1220 H       1  LIG1        0.0642
     13 H          -0.2440    2.6977    8.4263 H       1  LIG1        0.0441
     14 H          -0.5776    1.1974    4.8479 H       1  LIG1        0.0608
     15 H          -2.8786    0.5731    5.9371 H       1  LIG1        0.0471
     16 H          -3.5181    3.2459    6.2943 H       1  LIG1        0.0772
     17 H          -0.8365    0.3370    7.2227 H       1  LIG1        0.0299
     18 H           0.4913    1.0965    6.9655 H       1  LIG1        0.0299
@<TRIPOS>BOND
     1     1    10    1
     2    14     9    1
     3     9    10    1
     4     9     2    1
     5     9     8    1
     6    10    15    1
     7    10    11    1
     8     2     5    1
     9    16    11    1
    10    11     5    1
    11    11     4    1
    12     5    12    1
    13     5     6    1
    14     8    18    1
    15     8    17    1
    16     8     6    1
    17     6    13    1
    18     6     7    1
    19     4     7    1
    20     7     3    2
