@<TRIPOS>MOLECULE
(3R,4S,5R,6R)-5-[(1R)-1-Chloro(phenylmethyl)]-3-[(4-methylphenyl) sulfonyl]-4-phenyl-1-aza-8-oxabicyclo[4.3.0]nonan-9-one
 60 64 0 0 0
SMALL
GASTEIGER

@<TRIPOS>ATOM
      1 CL         -1.6256    4.9677    9.1353 Cl      1  LIG1       -0.1164
      2 S           3.2538    6.3496   11.6044 S.O2    1  LIG1        0.0018
      3 O           2.9479    9.4947    7.2767 O.2     1  LIG1       -0.2262
      4 O           1.5304    8.2678    6.0304 O.3     1  LIG1       -0.4484
      5 O           4.2642    7.3838   11.5770 O.2     1  LIG1       -0.1690
      6 O           2.0979    6.5313   12.4483 O.2     1  LIG1       -0.1690
      7 N           1.9032    7.6126    8.1022 N.am    1  LIG1       -0.2590
      8 C           2.2049    8.5455    7.1761 C.2     1  LIG1        0.4033
      9 C           0.8775    6.9723    6.1867 C.3     1  LIG1        0.1130
     10 H           1.4163    6.2541    5.7700 H       1  LIG1        0.0717
     11 H          -0.0220    6.9787    5.7728 H       1  LIG1        0.0717
     12 C           0.7774    6.7696    7.7109 C.3     1  LIG1        0.0684
     13 H          -0.0775    7.1582    8.0535 H       1  LIG1        0.0539
     14 C           0.9601    5.3451    8.2487 C.3     1  LIG1        0.0098
     15 H           1.7121    4.9262    7.7403 H       1  LIG1        0.0344
     16 C           1.3713    5.3741    9.7517 C.3     1  LIG1        0.0145
     17 H           0.6500    5.8531   10.2514 H       1  LIG1        0.0372
     18 C           2.6651    6.1995    9.9015 C.3     1  LIG1        0.1048
     19 H           3.3839    5.7947    9.3366 H       1  LIG1        0.0562
     20 C           2.4142    7.6440    9.4496 C.3     1  LIG1        0.0414
     21 H           1.7587    8.0787   10.0513 H       1  LIG1        0.0485
     22 H           3.2583    8.1608    9.4801 H       1  LIG1        0.0485
     23 C          -0.2917    4.4770    8.0213 C.3     1  LIG1        0.0641
     24 H          -0.0454    3.5344    8.2480 H       1  LIG1        0.0518
     25 C          -0.7596    4.4863    6.5706 C.ar    1  LIG1       -0.0294
     26 C          -1.8783    5.1910    6.1359 C.ar    1  LIG1       -0.0572
     27 H          -2.4192    5.6526    6.7662 H       1  LIG1        0.0621
     28 C          -2.2102    5.2248    4.7817 C.ar    1  LIG1       -0.0615
     29 H          -2.9774    5.7036    4.4924 H       1  LIG1        0.0618
     30 C          -1.4179    4.5580    3.8580 C.ar    1  LIG1       -0.0617
     31 H          -1.6402    4.5862    2.9347 H       1  LIG1        0.0618
     32 C          -0.3003    3.8480    4.2809 C.ar    1  LIG1       -0.0615
     33 H           0.2405    3.3914    3.6480 H       1  LIG1        0.0618
     34 C           0.0244    3.8088    5.6323 C.ar    1  LIG1       -0.0572
     35 H           0.7846    3.3175    5.9204 H       1  LIG1        0.0621
     36 C           1.4829    3.9768   10.3387 C.ar    1  LIG1       -0.0420
     37 C           2.4622    3.0879    9.8983 C.ar    1  LIG1       -0.0582
     38 H           3.0261    3.3303    9.1738 H       1  LIG1        0.0620
     39 C           2.6204    1.8501   10.5106 C.ar    1  LIG1       -0.0615
     40 H           3.3066    1.2614   10.2183 H       1  LIG1        0.0618
     41 C           1.7771    1.4718   11.5497 C.ar    1  LIG1       -0.0617
     42 H           1.8864    0.6270   11.9705 H       1  LIG1        0.0618
     43 C           0.7762    2.3341   11.9694 C.ar    1  LIG1       -0.0615
     44 H           0.1863    2.0725   12.6659 H       1  LIG1        0.0618
     45 C           0.6349    3.5777   11.3735 C.ar    1  LIG1       -0.0582
     46 H          -0.0479    4.1661   11.6725 H       1  LIG1        0.0620
     47 C           4.0572    4.8479   12.0492 C.ar    1  LIG1        0.0886
     48 C           5.2308    4.4796   11.3894 C.ar    1  LIG1       -0.0366
     49 H           5.5744    5.0182   10.6860 H       1  LIG1        0.0637
     50 C           5.8876    3.3276   11.7659 C.ar    1  LIG1       -0.0570
     51 H           6.6801    3.0696   11.3097 H       1  LIG1        0.0621
     52 C           5.4021    2.5292   12.8149 C.ar    1  LIG1       -0.0503
     53 C           4.2375    2.9293   13.4611 C.ar    1  LIG1       -0.0570
     54 H           3.9022    2.4061   14.1809 H       1  LIG1        0.0621
     55 C           3.5555    4.0699   13.0812 C.ar    1  LIG1       -0.0366
     56 H           2.7516    4.3183   13.5227 H       1  LIG1        0.0637
     57 C           6.1047    1.2514   13.2084 C.3     1  LIG1       -0.0397
     58 H           5.9293    1.0591   14.1533 H       1  LIG1        0.0278
     59 H           7.0701    1.3525   13.0688 H       1  LIG1        0.0278
     60 H           5.7719    0.5122   12.6576 H       1  LIG1        0.0278
@<TRIPOS>BOND
     1    31    30    1
     2    33    32    1
     3    30    32   ar
     4    30    28   ar
     5    32    34   ar
     6    29    28    1
     7    28    26   ar
     8    34    35    1
     9    34    25   ar
    10    10     9    1
    11    11     9    1
    12     4     9    1
    13     4     8    1
    14    26    25   ar
    15    26    27    1
    16     9    12    1
    17    25    23    1
    18     8     3    2
    19     8     7   am
    20    12    13    1
    21    12     7    1
    22    12    14    1
    23    15    14    1
    24    23    24    1
    25    23    14    1
    26    23     1    1
    27     7    20    1
    28    14    16    1
    29    38    37    1
    30    19    18    1
    31    20    22    1
    32    20    18    1
    33    20    21    1
    34    16    18    1
    35    16    17    1
    36    16    36    1
    37    37    36   ar
    38    37    39   ar
    39    18     2    1
    40    40    39    1
    41    36    45   ar
    42    39    41   ar
    43    49    48    1
    44    51    50    1
    45    45    46    1
    46    45    43   ar
    47    48    50   ar
    48    48    47   ar
    49    41    43   ar
    50    41    42    1
    51     5     2    2
    52     2    47    1
    53     2     6    2
    54    50    52   ar
    55    43    44    1
    56    47    55   ar
    57    60    57    1
    58    52    57    1
    59    52    53   ar
    60    59    57    1
    61    55    53   ar
    62    55    56    1
    63    57    58    1
    64    53    54    1
