@<TRIPOS>MOLECULE
N^s^,N^o^--diphenyl(thiooxamide)
 30 31 0 0 0
SMALL
GASTEIGER

@<TRIPOS>ATOM
      1 S           0.0445    7.7693    4.1346 S.2     1  LIG1       -0.0299
      2 O           1.9930    8.7753    0.9089 O.2     1  LIG1       -0.2679
      3 C           1.4046    8.9032    1.9828 C.2     1  LIG1        0.2697
      4 N           1.2062   10.0211    2.6471 N.am    1  LIG1       -0.2800
      5 C           0.8545    7.6596    2.6901 C.2     1  LIG1        0.1393
      6 N           1.0675    6.5670    2.0013 N.am    1  LIG1       -0.3046
      7 C           1.5972   11.3515    2.3777 C.ar    1  LIG1        0.0337
      8 C           2.2456   11.7250    1.2155 C.ar    1  LIG1       -0.0405
      9 C           2.5750   13.0494    1.0256 C.ar    1  LIG1       -0.0600
     10 C           2.2875   13.9919    1.9741 C.ar    1  LIG1       -0.0616
     11 C           1.6484   13.6132    3.1251 C.ar    1  LIG1       -0.0600
     12 C           1.2879   12.3050    3.3380 C.ar    1  LIG1       -0.0405
     13 C           0.7415    5.2385    2.4100 C.ar    1  LIG1        0.0318
     14 C           0.0269    4.4208    1.5461 C.ar    1  LIG1       -0.0405
     15 C          -0.2623    3.1273    1.9306 C.ar    1  LIG1       -0.0600
     16 C           0.1511    2.6560    3.1421 C.ar    1  LIG1       -0.0616
     17 C           0.8649    3.4664    3.9891 C.ar    1  LIG1       -0.0600
     18 C           1.1738    4.7643    3.6269 C.ar    1  LIG1       -0.0405
     19 H           0.8053    9.8957    3.3869 H       1  LIG1        0.1552
     20 H           1.3991    6.7244    1.2748 H       1  LIG1        0.1528
     21 H           2.3687   11.1583    0.5472 H       1  LIG1        0.0636
     22 H           3.0225   13.2872    0.2280 H       1  LIG1        0.0618
     23 H           2.4149   14.9756    1.8634 H       1  LIG1        0.0618
     24 H           1.4034   14.2709    3.7662 H       1  LIG1        0.0618
     25 H           0.8783   11.9952    4.1476 H       1  LIG1        0.0636
     26 H          -0.3134    4.7716    0.7172 H       1  LIG1        0.0636
     27 H          -0.7955    2.6134    1.3597 H       1  LIG1        0.0618
     28 H          -0.0118    1.8940    3.3662 H       1  LIG1        0.0618
     29 H           1.1567    3.1287    4.8544 H       1  LIG1        0.0618
     30 H           1.7157    5.3149    4.1414 H       1  LIG1        0.0636
@<TRIPOS>BOND
     1    22     9    1
     2    21     8    1
     3    26    14    1
     4     2     3    2
     5     9     8   ar
     6     9    10   ar
     7     8     7   ar
     8    20     6    1
     9    27    15    1
    10    14    15   ar
    11    14    13   ar
    12    23    10    1
    13    15    16   ar
    14    10    11   ar
    15     3     4   am
    16     3     5    1
    17     6    13    1
    18     6     5    1
    19     7     4    1
    20     7    12   ar
    21    13    18   ar
    22     4    19    1
    23     5     1    2
    24    11    12   ar
    25    11    24    1
    26    16    28    1
    27    16    17   ar
    28    12    25    1
    29    18    17   ar
    30    18    30    1
    31    17    29    1
