@<TRIPOS>MOLECULE
?
 58 60 0 0 0
SMALL
GASTEIGER

@<TRIPOS>ATOM
      1 S           4.0381    4.0225   13.4553 S.3     1  LIG1       -0.1170
      2 O           6.2888    4.0205   15.3972 O.3     1  LIG1       -0.4641
      3 O           4.7520    3.8922   17.0248 O.2     1  LIG1       -0.2444
      4 O           2.7861    6.7860   17.4160 O.2     1  LIG1       -0.2452
      5 O           4.9698    6.7813   16.9120 O.3     1  LIG1       -0.4646
      6 O           0.2901    6.9872   12.6696 O.2     1  LIG1       -0.2747
      7 O           3.6564    6.2960   10.2806 O.2     1  LIG1       -0.2258
      8 O           2.2964    7.1066    8.7160 O.3     1  LIG1       -0.4481
      9 N           2.5951    8.2300   14.3641 N.3     1  LIG1       -0.3005
     10 N           1.5399    7.1214   10.8086 N.am    1  LIG1       -0.2005
     11 C           4.1852    4.9322   14.9442 C.2     1  LIG1        0.1035
     12 C           3.4924    6.0351   15.2670 C.2     1  LIG1        0.0745
     13 C           2.4806    6.7589   14.3813 C.3     1  LIG1        0.0550
     14 C           2.5578    6.2742   12.9330 C.3     1  LIG1        0.0654
     15 C           2.5186    4.7449   12.8138 C.3     1  LIG1        0.0114
     16 C           5.0867    4.2388   15.9266 C.2     1  LIG1        0.3458
     17 C           7.2253    3.3008   16.2357 C.3     1  LIG1        0.0820
     18 C           3.6747    6.5743   16.6445 C.2     1  LIG1        0.3377
     19 C           5.3010    7.1525   18.2633 C.3     1  LIG1        0.0820
     20 C           3.9453    8.7634   14.3130 C.3     1  LIG1       -0.0124
     21 C           1.7443    8.9466   15.2966 C.3     1  LIG1       -0.0124
     22 C           1.3796    6.8243   12.1663 C.2     1  LIG1        0.2304
     23 C           2.6098    6.7944    9.9850 C.2     1  LIG1        0.4097
     24 C           0.9064    7.4988    8.6112 C.3     1  LIG1        0.1134
     25 C           0.4199    7.7056   10.0481 C.3     1  LIG1        0.0749
     26 C           0.1512    9.1691   10.4071 C.3     1  LIG1       -0.0052
     27 C           1.3031   10.1082   10.1700 C.ar    1  LIG1       -0.0455
     28 C           2.3288   10.2273   11.1048 C.ar    1  LIG1       -0.0585
     29 C           3.3865   11.0991   10.9033 C.ar    1  LIG1       -0.0615
     30 C           3.4416   11.8604    9.7452 C.ar    1  LIG1       -0.0617
     31 C           2.4378   11.7571    8.8098 C.ar    1  LIG1       -0.0615
     32 C           1.3765   10.8897    9.0219 C.ar    1  LIG1       -0.0585
     33 H           1.6140    6.5735   14.7972 H       1  LIG1        0.0522
     34 H           3.4085    6.5913   12.5618 H       1  LIG1        0.0421
     35 H           2.3845    4.5586   11.8625 H       1  LIG1        0.0388
     36 H           1.7260    4.4635   13.3184 H       1  LIG1        0.0388
     37 H           7.5447    3.8735   16.9547 H       1  LIG1        0.0661
     38 H           6.8280    2.5017   16.6130 H       1  LIG1        0.0661
     39 H           7.9701    3.0563   15.6639 H       1  LIG1        0.0661
     40 H           6.2582    7.2957   18.2799 H       1  LIG1        0.0661
     41 H           4.8432    7.9743   18.4954 H       1  LIG1        0.0661
     42 H           5.0659    6.4591   18.9035 H       1  LIG1        0.0661
     43 H           4.5182    8.2322   13.7380 H       1  LIG1        0.0391
     44 H           3.8939    9.6701   13.9718 H       1  LIG1        0.0391
     45 H           4.3131    8.7787   15.2122 H       1  LIG1        0.0391
     46 H           1.6850    9.8651   14.9921 H       1  LIG1        0.0391
     47 H           2.0853    8.9270   16.2049 H       1  LIG1        0.0391
     48 H           0.8630    8.5401   15.2741 H       1  LIG1        0.0391
     49 H           0.4033    6.7863    8.1621 H       1  LIG1        0.0717
     50 H           0.8422    8.3225    8.0887 H       1  LIG1        0.0717
     51 H          -0.4388    7.2763   10.2508 H       1  LIG1        0.0543
     52 H          -0.6053    9.4863    9.8725 H       1  LIG1        0.0332
     53 H          -0.0783    9.2171   11.3604 H       1  LIG1        0.0332
     54 H           2.3062    9.6846   11.9176 H       1  LIG1        0.0620
     55 H           4.0922   11.1773   11.5782 H       1  LIG1        0.0618
     56 H           4.1913   12.4717    9.5882 H       1  LIG1        0.0618
     57 H           2.4751   12.3008    7.9970 H       1  LIG1        0.0618
     58 H           0.6733   10.8275    8.3455 H       1  LIG1        0.0620
@<TRIPOS>BOND
     1    57    31    1
     2    50    24    1
     3    49    24    1
     4    58    32    1
     5    24     8    1
     6    24    25    1
     7     8    23    1
     8    31    32   ar
     9    31    30   ar
    10    32    27   ar
    11    56    30    1
    12    30    29   ar
    13    52    26    1
    14    23     7    2
    15    23    10   am
    16    25    51    1
    17    25    26    1
    18    25    10    1
    19    27    26    1
    20    27    28   ar
    21    26    53    1
    22    10    22   am
    23    29    28   ar
    24    29    55    1
    25    28    54    1
    26    35    15    1
    27    22     6    2
    28    22    14    1
    29    34    14    1
    30    15    14    1
    31    15    36    1
    32    15     1    1
    33    14    13    1
    34     1    11    1
    35    43    20    1
    36    44    20    1
    37    20     9    1
    38    20    45    1
    39     9    13    1
    40     9    21    1
    41    13    33    1
    42    13    12    1
    43    11    12    2
    44    11    16    1
    45    46    21    1
    46    12    18    1
    47    48    21    1
    48    21    47    1
    49     2    16    1
    50     2    17    1
    51    39    17    1
    52    16     3    2
    53    17    38    1
    54    17    37    1
    55    18     5    1
    56    18     4    2
    57     5    19    1
    58    19    40    1
    59    19    41    1
    60    19    42    1
