@<TRIPOS>MOLECULE
L-argininium chloride
 56 52 0 0 0
SMALL
GASTEIGER

@<TRIPOS>ATOM
      1 OXT         4.4870    5.7544   10.1317 O.co2   1  ARG1       -0.2400
      2 O           2.4080    6.5084    9.7954 O.co2   1  ARG1       -0.2400
      3 C           3.6493    6.6064    9.7221 C.2     1  ARG1        0.4026
      4 CA          4.2194    7.8508    9.0253 C.3     1  ARG1        0.0786
      5 HA          3.5071    8.5173    8.9331 H       1  ARG1        0.0970
      6 N           5.3202    8.4302    9.8514 N.4     1  ARG1        0.2289
      7 H1          5.0113    8.6244   10.6632 H       1  ARG1        0.2002
      8 H2          5.6233    9.1721    9.4637 H       1  ARG1        0.2002
      9 H3          5.9826    7.8397    9.9200 H       1  ARG1        0.2002
     10 CB          4.7766    7.5284    7.6424 C.3     1  ARG1        0.0037
     11 HB1         5.0088    8.3549    7.1910 H       1  ARG1        0.0326
     12 HB2         5.5869    7.0037    7.7386 H       1  ARG1        0.0326
     13 CG          3.7770    6.7565    6.7933 C.3     1  ARG1       -0.0166
     14 HG1         2.9055    7.1760    6.8661 H       1  ARG1        0.0298
     15 HG2         3.7010    5.8516    7.1328 H       1  ARG1        0.0298
     16 NE          3.2128    5.8876    4.6304 N.pl3   1  ARG1       -0.2787
     17 HE          2.5984    5.5143    5.1019 H       1  ARG1        0.2578
     18 CD          4.1893    6.7090    5.3275 C.3     1  ARG1        0.0648
     19 HD1         4.2036    7.6032    4.9535 H       1  ARG1        0.0655
     20 HD2         5.0755    6.3239    5.2403 H       1  ARG1        0.0655
     21 CZ          3.1986    5.6733    3.3331 C.cat   1  ARG1        0.3410
     22 NH2         2.2876    4.8229    2.8319 N.pl3   1  ARG1       -0.2919
     23 HH21        1.7300    4.4313    3.3568 H       1  ARG1        0.2545
     24 HH22        2.2624    4.6698    1.9858 H       1  ARG1        0.2545
     25 NH1         4.0946    6.2369    2.5249 N.pl3   1  ARG1       -0.2919
     26 HH11        4.7003    6.7546    2.8483 H       1  ARG1        0.2545
     27 HH12        4.0673    6.0838    1.6789 H       1  ARG1        0.2545
     28 O           4.3975    0.7051   -1.5353 O.co2   1  ARG1       -0.2400
     29 OXT         6.5142    1.2789   -1.1140 O.co2   1  ARG1       -0.2400
     30 C           5.2773    1.4933   -1.1153 C.2     1  ARG1        0.4026
     31 CA          4.8403    2.8531   -0.5522 C.3     1  ARG1        0.0786
     32 HA          5.4603    3.5312   -0.8936 H       1  ARG1        0.0970
     33 N           3.4742    3.1976   -1.0432 N.4     1  ARG1        0.2289
     34 H1          3.4648    3.1759   -1.9326 H       1  ARG1        0.2002
     35 H2          3.2555    4.0141   -0.7642 H       1  ARG1        0.2002
     36 H3          2.8872    2.6085   -0.7261 H       1  ARG1        0.2002
     37 CB          4.9270    2.8699    0.9705 C.3     1  ARG1        0.0037
     38 HB1         4.6941    3.7586    1.2807 H       1  ARG1        0.0326
     39 HB2         5.8477    2.7039    1.2266 H       1  ARG1        0.0326
     40 CG          4.0371    1.8589    1.6910 C.3     1  ARG1       -0.0166
     41 HG1         3.1063    2.0445    1.4904 H       1  ARG1        0.0298
     42 HG2         4.2407    0.9641    1.3760 H       1  ARG1        0.0298
     43 CD          4.2574    1.9309    3.1884 C.3     1  ARG1        0.0648
     44 HD1         5.1499    1.6192    3.4050 H       1  ARG1        0.0655
     45 HD2         4.1745    2.8490    3.4892 H       1  ARG1        0.0655
     46 NE          3.2661    1.0993    3.8596 N.pl3   1  ARG1       -0.2787
     47 HE          2.7057    0.6636    3.3739 H       1  ARG1        0.2578
     48 CZ          3.1813    0.9773    5.1707 C.cat   1  ARG1        0.3410
     49 NH2         4.0585    1.5415    5.9733 N.pl3   1  ARG1       -0.2919
     50 HH21        4.7059    2.0030    5.6455 H       1  ARG1        0.2545
     51 HH22        3.9835    1.4489    6.8249 H       1  ARG1        0.2545
     52 NH1         2.2234    0.1903    5.7029 N.pl3   1  ARG1       -0.2919
     53 HH11        2.1930    0.0655    6.5532 H       1  ARG1        0.2545
     54 HH12        1.6429   -0.1848    5.1922 H       1  ARG1        0.2545
     55 CL          1.2518    8.5359    2.5452 Cl      1  LIG1        0.0000
     56 CL          3.8391    3.5301   -4.1492 Cl      2  LIG2        0.0000
@<TRIPOS>BOND
     1    34    33    1
     2    28    30   ar
     3    30    29   ar
     4    30    31    1
     5    33    35    1
     6    33    36    1
     7    33    31    1
     8    32    31    1
     9    31    37    1
    10    37    39    1
    11    37    38    1
    12    37    40    1
    13    42    40    1
    14    41    40    1
    15    27    25    1
    16    40    43    1
    17    24    22    1
    18    25    26    1
    19    25    21    2
    20    22    21    1
    21    22    23    1
    22    43    44    1
    23    43    45    1
    24    43    46    1
    25    21    16    1
    26    47    46    1
    27    46    48    1
    28    16    17    1
    29    16    18    1
    30    19    18    1
    31    48    52    2
    32    48    49    1
    33    54    52    1
    34    20    18    1
    35    18    13    1
    36    50    49    1
    37    52    53    1
    38    49    51    1
    39    13    14    1
    40    13    15    1
    41    13    10    1
    42    11    10    1
    43    10    12    1
    44    10     4    1
    45     5     4    1
    46     4     3    1
    47     4     6    1
    48     8     6    1
    49     3     2   ar
    50     3     1   ar
    51     6     9    1
    52     6     7    1
