@<TRIPOS>MOLECULE
bicyclo[2.2.1]heptane-exo-cis-2,3-dicarboxylic acid
 25 26 0 0 0
SMALL
GASTEIGER

@<TRIPOS>ATOM
      1 C           1.7326    2.4866    8.4021 C.3     1  LIG1       -0.0271
      2 H           1.4656    2.9873    9.1765 H       1  LIG1        0.0309
      3 C           0.9345    2.8675    7.1446 C.3     1  LIG1        0.0722
      4 H           1.2813    3.6844    6.7139 H       1  LIG1        0.0424
      5 C           1.1706    1.6483    6.1869 C.3     1  LIG1        0.0722
      6 H           1.6597    1.9337    5.3736 H       1  LIG1        0.0424
      7 C           2.0506    0.7168    7.0564 C.3     1  LIG1       -0.0271
      8 H           2.0526   -0.2128    6.7078 H       1  LIG1        0.0309
      9 C           3.4496    1.3412    7.1381 C.3     1  LIG1       -0.0492
     10 H           4.0680    0.6787    7.5794 H       1  LIG1        0.0268
     11 H           3.8084    1.5759    6.2502 H       1  LIG1        0.0268
     12 C           3.2287    2.5728    8.0467 C.3     1  LIG1       -0.0492
     13 H           3.7630    2.5031    8.8477 H       1  LIG1        0.0268
     14 H           3.4423    3.4313    7.5855 H       1  LIG1        0.0268
     15 C           1.5123    0.9786    8.4659 C.3     1  LIG1       -0.0458
     16 H           2.0496    0.5510    9.1521 H       1  LIG1        0.0271
     17 H           0.5537    0.7132    8.6002 H       1  LIG1        0.0271
     18 C          -0.5241    3.1860    7.3845 C.2     1  LIG1        0.3089
     19 C          -0.0674    0.9268    5.7190 C.2     1  LIG1        0.3089
     20 O          -1.1858    3.4970    6.3166 O.3     1  LIG1       -0.4804
     21 H          -2.1546    3.5084    6.5140 H       1  LIG1        0.2951
     22 O          -1.0163    3.1922    8.5183 O.2     1  LIG1       -0.2507
     23 O          -0.0814    0.6902    4.4460 O.3     1  LIG1       -0.4804
     24 H          -0.8888    0.2416    4.2108 H       1  LIG1        0.2951
     25 O          -0.9494    0.5643    6.4897 O.2     1  LIG1       -0.2507
@<TRIPOS>BOND
     1    24    23    1
     2    23    19    1
     3     6     5    1
     4    19     5    1
     5    19    25    2
     6     5     7    1
     7     5     3    1
     8    11     9    1
     9    20    21    1
    10    20    18    1
    11     8     7    1
    12     4     3    1
    13     7     9    1
    14     7    15    1
    15     9    10    1
    16     9    12    1
    17     3    18    1
    18     3     1    1
    19    18    22    2
    20    14    12    1
    21    12     1    1
    22    12    13    1
    23     1    15    1
    24     1     2    1
    25    15    17    1
    26    15    16    1
