@<TRIPOS>MOLECULE
2,6-dibromo-4-fluorobenzonitrile
 13 13 0 0 0
SMALL
GASTEIGER

@<TRIPOS>ATOM
      1 BR          0.6759    3.7005    2.9139 Br      1  LIG1       -0.0488
      2 BR          0.7613    9.3094    3.7482 Br      1  LIG1       -0.0488
      3 F          -1.5349    7.0840   -0.3013 F       1  LIG1       -0.2054
      4 N           2.0125    6.1454    5.2692 N.1     1  LIG1       -0.1908
      5 C           0.6097    6.5314    3.1520 C.ar    1  LIG1        0.0798
      6 C           0.2073    5.4370    2.3536 C.ar    1  LIG1        0.0390
      7 C          -0.5073    5.6088    1.1933 C.ar    1  LIG1       -0.0112
      8 H          -0.7646    4.8685    0.6577 H       1  LIG1        0.0658
      9 C          -0.8329    6.8874    0.8403 C.ar    1  LIG1        0.1256
     10 C          -0.4781    8.0014    1.5595 C.ar    1  LIG1       -0.0112
     11 H          -0.7189    8.8727    1.2670 H       1  LIG1        0.0658
     12 C           0.2428    7.8119    2.7242 C.ar    1  LIG1        0.0390
     13 C           1.3606    6.3296    4.3519 C.1     1  LIG1        0.1014
@<TRIPOS>BOND
     1     3     9    1
     2     8     7    1
     3     9     7   ar
     4     9    10   ar
     5     7     6   ar
     6    11    10    1
     7    10    12   ar
     8     6     1    1
     9     6     5   ar
    10    12     5   ar
    11    12     2    1
    12     5    13    1
    13    13     4    3
