@<TRIPOS>MOLECULE
n-Methyl-4-hydroxyproline
 21 21 0 0 0
SMALL
GASTEIGER

@<TRIPOS>ATOM
      1 O           3.0835    2.8184    6.7508 O.co2   1  LIG1       -0.2400
      2 O           2.4175    4.0379    8.5150 O.co2   1  LIG1       -0.2400
      3 O           0.0887    5.6068    3.9443 O.3     1  LIG1       -0.3863
      4 N           0.2239    5.0131    7.2119 N.4     1  LIG1        0.2452
      5 C           2.3628    3.6729    7.3157 C.2     1  LIG1        0.4028
      6 C           1.3253    4.3615    6.4294 C.3     1  LIG1        0.0844
      7 C           1.8526    5.5513    5.6288 C.3     1  LIG1        0.0320
      8 C           0.5742    6.2179    5.1351 C.3     1  LIG1        0.1005
      9 C          -0.4575    5.9421    6.2399 C.3     1  LIG1       -0.0045
     10 C          -0.6897    4.0614    7.8916 C.3     1  LIG1       -0.0422
     11 H          -0.1722    3.4798    8.4868 H       1  LIG1        0.0778
     12 H          -1.1509    3.5157    7.2213 H       1  LIG1        0.0778
     13 H          -1.3503    4.5609    8.4161 H       1  LIG1        0.0778
     14 H           0.5979    5.5906    7.8982 H       1  LIG1        0.2040
     15 H          -1.2632    5.4519    5.8824 H       1  LIG1        0.0840
     16 H           0.7331    5.6137    3.3626 H       1  LIG1        0.2100
     17 H           2.3116    6.1514    6.2046 H       1  LIG1        0.0353
     18 H           0.9229    3.7232    5.8570 H       1  LIG1        0.0972
     19 H          -0.7071    6.7295    6.7182 H       1  LIG1        0.0840
     20 H           0.6722    7.1516    5.0290 H       1  LIG1        0.0649
     21 H           2.4070    5.2842    4.8858 H       1  LIG1        0.0353
@<TRIPOS>BOND
     1    16     3    1
     2     3     8    1
     3    21     7    1
     4    20     8    1
     5     8     7    1
     6     8     9    1
     7     7    17    1
     8     7     6    1
     9    18     6    1
    10    15     9    1
    11     9    19    1
    12     9     4    1
    13     6     4    1
    14     6     5    1
    15     1     5   ar
    16     4    10    1
    17     4    14    1
    18    12    10    1
    19     5     2   ar
    20    10    13    1
    21    10    11    1
