@<TRIPOS>MOLECULE
trans-3,3'-Bis(diphenylhydroxymethyl)stilbene-benzene (3/4)
 135 142 0 0 0
SMALL
GASTEIGER

@<TRIPOS>ATOM
      1 O           8.5021    2.2336    7.6382 O.3     1  LIG1       -0.3751
      2 O          12.3250    4.5668   -0.1414 O.3     1  LIG1       -0.3751
      3 O           9.9373    5.6620    0.9063 O.3     2  LIG2       -0.3751
      4 C           7.3432    1.6617    6.9931 C.3     1  LIG1        0.1413
      5 C           6.5554    2.7994    6.3165 C.ar    1  LIG1       -0.0072
      6 C           6.1236    2.7374    5.0047 C.ar    1  LIG1       -0.0552
      7 C           5.4468    3.8093    4.4299 C.ar    1  LIG1       -0.0614
      8 C           5.2104    4.9385    5.1435 C.ar    1  LIG1       -0.0617
      9 C           5.5993    5.0031    6.4543 C.ar    1  LIG1       -0.0614
     10 C           6.2611    3.9402    7.0426 C.ar    1  LIG1       -0.0552
     11 C           6.4741    0.9514    8.0364 C.ar    1  LIG1       -0.0072
     12 C           5.1159    0.8094    7.8706 C.ar    1  LIG1       -0.0552
     13 C           4.3464    0.1621    8.8256 C.ar    1  LIG1       -0.0614
     14 C           4.9204   -0.3259    9.9536 C.ar    1  LIG1       -0.0617
     15 C           6.2624   -0.2109   10.1247 C.ar    1  LIG1       -0.0614
     16 C           7.0398    0.4232    9.1770 C.ar    1  LIG1       -0.0552
     17 C           7.9249    0.7090    5.9498 C.ar    1  LIG1       -0.0067
     18 C           7.4110   -0.5516    5.7110 C.ar    1  LIG1       -0.0552
     19 C           7.9731   -1.3336    4.7065 C.ar    1  LIG1       -0.0608
     20 C           9.0271   -0.8608    3.9578 C.ar    1  LIG1       -0.0546
     21 C           9.5444    0.3875    4.1768 C.ar    1  LIG1       -0.0246
     22 C           8.9854    1.1539    5.1660 C.ar    1  LIG1       -0.0480
     23 C          10.6790    0.9618    3.3587 C.2     1  LIG1       -0.0540
     24 C          11.5545    0.3318    2.6875 C.2     1  LIG1       -0.0540
     25 C          12.6777    0.8869    1.9163 C.ar    1  LIG1       -0.0246
     26 C          12.6368    2.2011    1.4091 C.ar    1  LIG1       -0.0480
     27 C          13.6971    2.7160    0.6730 C.ar    1  LIG1       -0.0067
     28 C          14.7874    1.8844    0.4523 C.ar    1  LIG1       -0.0552
     29 C          14.8274    0.6029    0.9604 C.ar    1  LIG1       -0.0608
     30 C          13.7892    0.1143    1.6721 C.ar    1  LIG1       -0.0546
     31 C          13.6793    4.1692    0.1649 C.3     1  LIG1        0.1413
     32 C          14.5545    4.3037   -1.0847 C.ar    1  LIG1       -0.0072
     33 C          15.8212    4.8467   -1.0379 C.ar    1  LIG1       -0.0552
     34 C          16.6201    4.9075   -2.1704 C.ar    1  LIG1       -0.0614
     35 C          16.1687    4.4262   -3.3542 C.ar    1  LIG1       -0.0617
     36 C          14.9173    3.8781   -3.4335 C.ar    1  LIG1       -0.0614
     37 C          14.1060    3.8155   -2.3037 C.ar    1  LIG1       -0.0552
     38 C          14.1058    5.1467    1.2586 C.ar    1  LIG1       -0.0072
     39 C          14.6490    4.7513    2.4623 C.ar    1  LIG1       -0.0552
     40 C          14.9738    5.6808    3.4245 C.ar    1  LIG1       -0.0614
     41 C          14.7569    7.0106    3.2164 C.ar    1  LIG1       -0.0617
     42 C          14.2188    7.4347    2.0109 C.ar    1  LIG1       -0.0614
     43 C          13.9064    6.5025    1.0388 C.ar    1  LIG1       -0.0552
     44 C           9.5435    6.5748    1.9604 C.3     2  LIG2        0.1413
     45 C           8.0413    6.7822    1.7316 C.ar    2  LIG2       -0.0072
     46 C           7.4640    8.0337    1.6289 C.ar    2  LIG2       -0.0552
     47 C           6.0923    8.1757    1.4208 C.ar    2  LIG2       -0.0614
     48 C           5.3027    7.0657    1.3172 C.ar    2  LIG2       -0.0617
     49 C           5.8587    5.8223    1.4037 C.ar    2  LIG2       -0.0614
     50 C           7.2138    5.6780    1.6118 C.ar    2  LIG2       -0.0552
     51 C           9.8645    5.9368    3.3128 C.ar    2  LIG2       -0.0072
     52 C           8.9415    5.7835    4.3128 C.ar    2  LIG2       -0.0552
     53 C           9.3078    5.2356    5.5372 C.ar    2  LIG2       -0.0614
     54 C          10.5756    4.8257    5.7669 C.ar    2  LIG2       -0.0617
     55 C          11.5087    4.9679    4.7750 C.ar    2  LIG2       -0.0614
     56 C          11.1590    5.5210    3.5713 C.ar    2  LIG2       -0.0552
     57 C          10.3110    7.8929    1.7974 C.ar    2  LIG2       -0.0069
     58 C          10.8030    8.2900    0.5631 C.ar    2  LIG2       -0.0552
     59 C          11.4764    9.5041    0.4370 C.ar    2  LIG2       -0.0611
     60 C          11.6632   10.3138    1.5343 C.ar    2  LIG2       -0.0582
     61 C          11.1565    9.9512    2.7722 C.ar    2  LIG2       -0.0427
     62 C          10.5014    8.7319    2.8785 C.ar    2  LIG2       -0.0517
     63 C          11.3377   10.8542    3.9191 C.3     2  LIG2       -0.0011
     64 C           6.8554   12.7561   11.0131 C.ar    3  LIG3       -0.0618
     65 C           5.5449   12.7902   10.7356 C.ar    3  LIG3       -0.0618
     66 C           4.7879   11.7095   10.8878 C.ar    3  LIG3       -0.0618
     67 C           5.3474   10.5716   11.3275 C.ar    3  LIG3       -0.0618
     68 C           6.6460   10.5048   11.6041 C.ar    3  LIG3       -0.0618
     69 C           7.4197   11.5916   11.4563 C.ar    3  LIG3       -0.0618
     70 C           2.2625   12.8928    3.3785 C.ar    4  LIG4       -0.0618
     71 C           2.7835   11.7524    3.7281 C.ar    4  LIG4       -0.0618
     72 C           3.0209   10.8121    2.7839 C.ar    4  LIG4       -0.0618
     73 C           2.6881   11.0609    1.5046 C.ar    4  LIG4       -0.0618
     74 C           2.1488   12.2527    1.1910 C.ar    4  LIG4       -0.0618
     75 C           1.9176   13.1441    2.1442 C.ar    4  LIG4       -0.0618
     76 H           8.2743    2.7163    8.2256 H       1  LIG1        0.2114
     77 H          11.9545    4.0609   -0.6397 H       1  LIG1        0.2114
     78 H          10.6518    5.4633    0.9910 H       2  LIG2        0.2114
     79 H           6.2923    1.9575    4.4894 H       1  LIG1        0.0621
     80 H           5.1455    3.7478    3.5353 H       1  LIG1        0.0618
     81 H           4.7759    5.6773    4.7344 H       1  LIG1        0.0618
     82 H           5.4170    5.7866    6.9634 H       1  LIG1        0.0618
     83 H           6.5144    3.9928    7.9571 H       1  LIG1        0.0621
     84 H           4.6960    1.1548    7.0895 H       1  LIG1        0.0621
     85 H           3.4115    0.0576    8.6941 H       1  LIG1        0.0618
     86 H           4.3903   -0.7427   10.6248 H       1  LIG1        0.0618
     87 H           6.6753   -0.5697   10.9023 H       1  LIG1        0.0618
     88 H           7.9785    0.4951    9.3067 H       1  LIG1        0.0621
     89 H           6.6839   -0.8782    6.2309 H       1  LIG1        0.0621
     90 H           7.6248   -2.2017    4.5371 H       1  LIG1        0.0618
     91 H           9.4006   -1.4107    3.2749 H       1  LIG1        0.0623
     92 H           9.3373    2.0224    5.3218 H       1  LIG1        0.0627
     93 H          10.7440    1.9084    3.3425 H       1  LIG1        0.0624
     94 H          11.4718   -0.6107    2.6839 H       1  LIG1        0.0624
     95 H          11.8737    2.7398    1.5676 H       1  LIG1        0.0627
     96 H          15.5197    2.2055   -0.0640 H       1  LIG1        0.0621
     97 H          15.5908    0.0602    0.8099 H       1  LIG1        0.0618
     98 H          13.8283   -0.7774    2.0019 H       1  LIG1        0.0623
     99 H          16.1491    5.1884   -0.2126 H       1  LIG1        0.0621
    100 H          17.4896    5.2859   -2.1118 H       1  LIG1        0.0618
    101 H          16.7203    4.4732   -4.1254 H       1  LIG1        0.0618
    102 H          14.6022    3.5407   -4.2677 H       1  LIG1        0.0618
    103 H          13.2373    3.4356   -2.3659 H       1  LIG1        0.0621
    104 H          14.8014    3.8272    2.6307 H       1  LIG1        0.0621
    105 H          15.3549    5.3932    4.2443 H       1  LIG1        0.0618
    106 H          14.9699    7.6444    3.8921 H       1  LIG1        0.0618
    107 H          14.0708    8.3603    1.8460 H       1  LIG1        0.0618
    108 H          13.5417    6.7940    0.2117 H       1  LIG1        0.0621
    109 H           8.0090    8.8118    1.6992 H       2  LIG2        0.0621
    110 H           5.7056    9.0426    1.3577 H       2  LIG2        0.0618
    111 H           4.3660    7.1611    1.1865 H       2  LIG2        0.0618
    112 H           5.3071    5.0511    1.3226 H       2  LIG2        0.0618
    113 H           7.5903    4.8049    1.6703 H       2  LIG2        0.0621
    114 H           8.0439    6.0526    4.1722 H       2  LIG2        0.0621
    115 H           8.6601    5.1513    6.2273 H       2  LIG2        0.0618
    116 H          10.8179    4.4410    6.6012 H       2  LIG2        0.0618
    117 H          12.4023    4.6843    4.9173 H       2  LIG2        0.0618
    118 H          11.8244    5.6209    2.8965 H       2  LIG2        0.0621
    119 H          10.6771    7.7352   -0.1982 H       2  LIG2        0.0621
    120 H          11.8079    9.7714   -0.4099 H       2  LIG2        0.0618
    121 H          12.1452   11.1261    1.4397 H       2  LIG2        0.0620
    122 H          10.1732    8.4691    3.7263 H       2  LIG2        0.0624
    123 H          12.0799   11.5720    3.7812 H       2  LIG2        0.0361
    124 H           7.3853   13.5403   10.9068 H       3  LIG3        0.0618
    125 H           5.1479   13.5940   10.4212 H       3  LIG3        0.0618
    126 H           3.8613   11.7341   10.6896 H       3  LIG3        0.0618
    127 H           4.8103    9.7955   11.4401 H       3  LIG3        0.0618
    128 H           7.0335    9.6941   11.9176 H       3  LIG3        0.0618
    129 H           8.3457   11.5563   11.6491 H       3  LIG3        0.0618
    130 H           2.1190   13.5601    4.0398 H       4  LIG4        0.0618
    131 H           2.9950   11.5852    4.6362 H       4  LIG4        0.0618
    132 H           3.4266    9.9849    3.0181 H       4  LIG4        0.0618
    133 H           2.8422   10.4181    0.8271 H       4  LIG4        0.0618
    134 H           1.9053   12.4483    0.2928 H       4  LIG4        0.0618
    135 H           1.5159   13.9733    1.9226 H       4  LIG4        0.0618
@<TRIPOS>BOND
     1   102    36    1
     2   101    35    1
     3    36    35   ar
     4    36    37   ar
     5    35    34   ar
     6   103    37    1
     7    37    32   ar
     8    34   100    1
     9    34    33   ar
    10    32    33   ar
    11    32    31    1
    12    33    99    1
    13    77     2    1
    14   120    59    1
    15   119    58    1
    16     2    31    1
    17    96    28    1
    18    31    27    1
    19    31    38    1
    20   108    43    1
    21   134    74    1
    22    59    58   ar
    23    59    60   ar
    24    28    27   ar
    25    28    29   ar
    26    58    57   ar
    27    27    26   ar
    28    97    29    1
    29   133    73    1
    30     3    78    1
    31     3    44    1
    32    29    30   ar
    33    43    38   ar
    34    43    42   ar
    35   111    48    1
    36    74    73   ar
    37    74    75   ar
    38    38    39   ar
    39    48    49   ar
    40    48    47   ar
    41   112    49    1
    42   110    47    1
    43    49    50   ar
    44    26    95    1
    45    26    25   ar
    46    47    46   ar
    47   121    60    1
    48    73    72   ar
    49    60    61   ar
    50    50   113    1
    51    50    45   ar
    52    46   109    1
    53    46    45   ar
    54    30    25   ar
    55    30    98    1
    56    45    44    1
    57    57    44    1
    58    57    62   ar
    59   107    42    1
    60    25    24    1
    61   135    75    1
    62    44    51    1
    63    42    41   ar
    64    75    70   ar
    65    39   104    1
    66    39    40   ar
    67    94    24    1
    68    24    23    2
    69    61    62   ar
    70    61    63    1
    71    72   132    1
    72    72    71   ar
    73    62   122    1
    74   118    56    1
    75    41    40   ar
    76    41   106    1
    77    91    20    1
    78    51    56   ar
    79    51    52   ar
    80    93    23    1
    81    23    21    1
    82    70    71   ar
    83    70   130    1
    84    40   105    1
    85    80     7    1
    86    56    55   ar
    87    71   131    1
    88   123    63    1
    89    20    21   ar
    90    20    19   ar
    91   114    52    1
    92    21    22   ar
    93    52    53   ar
    94     7     6   ar
    95     7     8   ar
    96    79     6    1
    97    90    19    1
    98    19    18   ar
    99    81     8    1
   100    55   117    1
   101    55    54   ar
   102     6     5   ar
   103     8     9   ar
   104    22    92    1
   105    22    17   ar
   106    53    54   ar
   107    53   115    1
   108    18    17   ar
   109    18    89    1
   110    54   116    1
   111    17     4    1
   112     5     4    1
   113     5    10   ar
   114     9    82    1
   115     9    10   ar
   116     4     1    1
   117     4    11    1
   118    10    83    1
   119    84    12    1
   120     1    76    1
   121    12    11   ar
   122    12    13   ar
   123    11    16   ar
   124    85    13    1
   125    13    14   ar
   126    16    88    1
   127    16    15   ar
   128    14    15   ar
   129    14    86    1
   130    15    87    1
   131   125    65    1
   132   126    66    1
   133    65    66   ar
   134    65    64   ar
   135    66    67   ar
   136   124    64    1
   137    64    69   ar
   138    67   127    1
   139    67    68   ar
   140    69    68   ar
   141    69   129    1
   142    68   128    1
