@<TRIPOS>MOLECULE
?
 50 46 0 0 0
SMALL
GASTEIGER

@<TRIPOS>ATOM
      1 O           4.4961    7.0042    8.8641 O.2     1  MET1       -0.2446
      2 OXT         5.4547    5.3115    9.9526 O.3     1  MET1       -0.4767
      3 HXT         5.0785    5.6311   10.6069 H       1  MET1        0.2953
      4 C           5.1714    6.0204    8.9016 C.2     1  MET1        0.3536
      5 CA          5.8567    5.4270    7.6808 C.3     1  MET1        0.0749
      6 HA          5.8740    4.4510    7.7681 H       1  MET1        0.0968
      7 N           5.0659    5.7900    6.4696 N.4     1  MET1        0.2288
      8 H1          5.4609    5.4532    5.7455 H       1  MET1        0.2002
      9 H2          5.0220    6.6762    6.3982 H       1  MET1        0.2002
     10 H3          4.2434    5.4565    6.5420 H       1  MET1        0.2002
     11 CB          7.2958    5.9417    7.5797 C.3     1  MET1        0.0097
     12 HB1         7.2778    6.8759    7.3186 H       1  MET1        0.0333
     13 HB2         7.7115    5.8860    8.4538 H       1  MET1        0.0333
     14 CG          8.1347    5.1716    6.5866 C.3     1  MET1       -0.0009
     15 HG1         7.7318    5.2496    5.7075 H       1  MET1        0.0378
     16 HG2         8.1282    4.2335    6.8311 H       1  MET1        0.0378
     17 SD          9.8488    5.7382    6.4932 S.3     1  MET1       -0.1639
     18 CE          9.6932    7.0588    5.3192 C.3     1  MET1       -0.0181
     19 HE1        10.5527    7.4637    5.1771 H       1  MET1        0.0340
     20 HE2         9.0812    7.7169    5.6563 H       1  MET1        0.0340
     21 HE3         9.3632    6.7108    4.4880 H       1  MET1        0.0340
     22 OXT         4.6240    5.8202   -0.5412 O.2     1  MET1       -0.2446
     23 O           3.7081    4.1404   -1.6851 O.3     1  MET1       -0.4767
     24 H           4.1170    4.4683   -2.3151 H       1  MET1        0.2953
     25 C           3.9570    4.8252   -0.5998 C.2     1  MET1        0.3536
     26 CA          3.2215    4.2513    0.5936 C.3     1  MET1        0.0749
     27 HA          3.1394    3.2804    0.4875 H       1  MET1        0.0968
     28 N           3.9903    4.5480    1.8239 N.4     1  MET1        0.2288
     29 H1          3.5615    4.2145    2.5299 H       1  MET1        0.2002
     30 H2          4.0728    5.4298    1.9168 H       1  MET1        0.2002
     31 H3          4.7986    4.1788    1.7648 H       1  MET1        0.2002
     32 CB          1.8250    4.8754    0.6560 C.3     1  MET1        0.0097
     33 HB1         1.9141    5.8257    0.8312 H       1  MET1        0.0333
     34 HB2         1.3968    4.7734   -0.2082 H       1  MET1        0.0333
     35 CG          0.9349    4.2664    1.7152 C.3     1  MET1       -0.0009
     36 HG1         1.3286    4.3958    2.5927 H       1  MET1        0.0378
     37 HG2         0.8406    3.3139    1.5615 H       1  MET1        0.0378
     38 SD         -0.6820    5.0650    1.6420 S.3     1  MET1       -0.1639
     39 CE         -1.5604    4.1136    2.8670 C.3     1  MET1       -0.0181
     40 HE1        -2.4608    4.4376    2.9380 H       1  MET1        0.0340
     41 HE2        -1.1194    4.2006    3.7147 H       1  MET1        0.0340
     42 HE3        -1.5720    3.1895    2.6059 H       1  MET1        0.0340
     43 N           5.9080    2.9948    4.6739 N.pl3   1  LIG1        0.2601
     44 O           5.9518    4.0729    4.0815 O.2     1  LIG1       -0.0867
     45 O           6.1797    1.9096    4.1131 O.2     1  LIG1       -0.0867
     46 O           5.5685    2.9603    5.8800 O.2     1  LIG1       -0.0867
     47 N           3.1481    1.7746    3.6148 N.pl3   2  LIG2        0.2601
     48 O           3.0200    0.7624    4.2897 O.2     2  LIG2       -0.0867
     49 O           3.5098    1.7066    2.4211 O.2     2  LIG2       -0.0867
     50 O           2.9528    2.9168    4.1012 O.2     2  LIG2       -0.0867
@<TRIPOS>BOND
     1    24    23    1
     2    23    25    1
     3    25    22    2
     4    25    26    1
     5    34    32    1
     6    27    26    1
     7    26    32    1
     8    26    28    1
     9    32    33    1
    10    32    35    1
    11    37    35    1
    12    38    35    1
    13    38    39    1
    14    35    36    1
    15    31    28    1
    16    28    30    1
    17    28    29    1
    18    49    47    2
    19    42    39    1
    20    39    40    1
    21    39    41    1
    22    47    50    1
    23    47    48    2
    24    44    43    2
    25    45    43    2
    26    21    18    1
    27    43    46    1
    28    19    18    1
    29    18    20    1
    30    18    17    1
    31    15    14    1
    32     8     7    1
    33     9     7    1
    34     7    10    1
    35     7     5    1
    36    17    14    1
    37    14    16    1
    38    14    11    1
    39    12    11    1
    40    11     5    1
    41    11    13    1
    42     5     6    1
    43     5     4    1
    44     1     4    2
    45     4     2    1
    46     2     3    1
