@<TRIPOS>MOLECULE
Bis(pentachlorophenyl) disulfide
 12 12 0 0 0
SMALL
GASTEIGER

@<TRIPOS>ATOM
      1 CL          7.4104    7.5421    1.7336 Cl      1  LIG1       -0.0808
      2 CL          5.4242    9.8801    1.3825 Cl      1  LIG1       -0.0804
      3 CL          2.3815    9.3251    1.2227 Cl      1  LIG1       -0.0804
      4 CL          1.2971    6.4503    1.6434 Cl      1  LIG1       -0.0804
      5 CL          3.2595    4.1132    2.1230 Cl      1  LIG1       -0.0808
      6 S           6.3648    4.6196    2.3880 S.3     1  LIG1       -0.0489
      7 C           5.2454    5.9266    1.9713 C.ar    1  LIG1        0.0585
      8 C           5.7171    7.2224    1.7527 C.ar    1  LIG1        0.0763
      9 C           4.8451    8.2777    1.5410 C.ar    1  LIG1        0.0801
     10 C           3.4680    8.0354    1.5123 C.ar    1  LIG1        0.0804
     11 C           2.9868    6.7482    1.6926 C.ar    1  LIG1        0.0801
     12 C           3.8656    5.7034    1.9180 C.ar    1  LIG1        0.0763
@<TRIPOS>BOND
     1     3    10    1
     2     2     9    1
     3    10     9   ar
     4    10    11   ar
     5     9     8   ar
     6     4    11    1
     7    11    12   ar
     8     1     8    1
     9     8     7   ar
    10    12     7   ar
    11    12     5    1
    12     7     6    1
