@<TRIPOS>MOLECULE
(4aR,6bR,12aR)-10-Hydroxy-2,2,4a,6b,9,9,12a-heptamethyl- 2,3,4,4a,5,6,6b,7,8,8a,9,10,11,12,12a,12b,13,14b-octadecahydro- 1H-picene-6a-carboxylic acid methanol solvate
 87 90 0 0 0
SMALL
GASTEIGER

@<TRIPOS>ATOM
      1 O           3.5896   -0.2852   14.3367 O.3     1  LIG1       -0.3912
      2 H           2.8773   -0.1961   14.7345 H       1  LIG1        0.2098
      3 O           3.0529    7.2320   10.4896 O.3     1  LIG1       -0.4800
      4 H           2.8479    7.7119   11.1234 H       1  LIG1        0.2951
      5 O           4.8010    6.8070   11.7760 O.2     1  LIG1       -0.2500
      6 C           5.7892    2.3376   12.7737 C.3     1  LIG1       -0.0447
      7 H           6.7571    2.3732   12.7176 H       1  LIG1        0.0271
      8 H           5.4929    3.1039   13.2895 H       1  LIG1        0.0271
      9 C           5.3746    1.0474   13.5098 C.3     1  LIG1       -0.0258
     10 H           5.7342    0.2797   13.0381 H       1  LIG1        0.0290
     11 H           5.7500    1.0529   14.4030 H       1  LIG1        0.0290
     12 C           3.8836    0.9254   13.5971 C.3     1  LIG1        0.0606
     13 H           3.5542    1.6822   14.1239 H       1  LIG1        0.0599
     14 C           3.1743    0.9652   12.2308 C.3     1  LIG1       -0.0056
     15 C           3.6620    2.2526   11.5042 C.3     1  LIG1       -0.0278
     16 H           3.4034    2.9751   12.1126 H       1  LIG1        0.0312
     17 C           2.9474    2.5926   10.2180 C.3     1  LIG1       -0.0486
     18 H           1.9991    2.4184   10.3167 H       1  LIG1        0.0268
     19 H           3.2843    2.0332    9.5016 H       1  LIG1        0.0268
     20 C           3.1660    4.0828    9.8605 C.3     1  LIG1       -0.0457
     21 H           2.6617    4.2981    9.0595 H       1  LIG1        0.0271
     22 H           2.8320    4.6381   10.5819 H       1  LIG1        0.0271
     23 C           4.6502    4.3968    9.6246 C.3     1  LIG1       -0.0090
     24 C           5.4892    3.9101   10.8369 C.3     1  LIG1       -0.0252
     25 H           5.2412    4.4983   11.5793 H       1  LIG1        0.0315
     26 C           5.2005    2.4322   11.3489 C.3     1  LIG1       -0.0249
     27 C           6.9696    4.1720   10.5861 C.3     1  LIG1       -0.0306
     28 H           7.4460    4.1185   11.4301 H       1  LIG1        0.0310
     29 H           7.3179    3.4769   10.0045 H       1  LIG1        0.0310
     30 C           7.2357    5.5114    9.9580 C.2     1  LIG1       -0.0831
     31 H           8.1237    5.7870    9.9216 H       1  LIG1        0.0572
     32 C           6.3289    6.3477    9.4455 C.2     1  LIG1       -0.0526
     33 C           4.8401    5.9707    9.4712 C.3     1  LIG1        0.0944
     34 C           4.1384    6.5068    8.1848 C.3     1  LIG1       -0.0324
     35 H           4.3163    5.8898    7.4571 H       1  LIG1        0.0279
     36 H           3.1795    6.5109    8.3357 H       1  LIG1        0.0279
     37 C           4.5650    7.9038    7.7513 C.3     1  LIG1       -0.0458
     38 H           4.2929    8.5441    8.4268 H       1  LIG1        0.0271
     39 H           4.1127    8.1328    6.9238 H       1  LIG1        0.0271
     40 C           6.0824    8.0053    7.5408 C.3     1  LIG1       -0.0255
     41 C           6.7654    7.6735    8.8778 C.3     1  LIG1       -0.0130
     42 H           7.7212    7.5844    8.6810 H       1  LIG1        0.0351
     43 C           6.6432    8.8059    9.9125 C.3     1  LIG1       -0.0408
     44 H           5.7138    8.8841   10.1785 H       1  LIG1        0.0276
     45 H           7.1536    8.5633   10.7007 H       1  LIG1        0.0276
     46 C           7.1264   10.1714    9.4215 C.3     1  LIG1       -0.0343
     47 C           6.3244   10.5019    8.1340 C.3     1  LIG1       -0.0473
     48 H           5.3867   10.6033    8.3605 H       1  LIG1        0.0271
     49 H           6.6357   11.3464    7.7720 H       1  LIG1        0.0271
     50 C           6.4684    9.4188    7.0750 C.3     1  LIG1       -0.0466
     51 H           7.3903    9.4037    6.7719 H       1  LIG1        0.0271
     52 H           5.9158    9.6546    6.3132 H       1  LIG1        0.0271
     53 C           3.3951   -0.3496   11.4439 C.3     1  LIG1       -0.0572
     54 H           2.8102   -1.0296   11.7865 H       1  LIG1        0.0236
     55 H           4.3072   -0.6334   11.5434 H       1  LIG1        0.0236
     56 H           3.2036   -0.2029   10.5156 H       1  LIG1        0.0236
     57 C           1.6749    1.0776   12.5046 C.3     1  LIG1       -0.0572
     58 H           1.4104    0.3962   13.1265 H       1  LIG1        0.0236
     59 H           1.1902    0.9679   11.6843 H       1  LIG1        0.0236
     60 H           1.4812    1.9413   12.8751 H       1  LIG1        0.0236
     61 C           5.8254    1.3518   10.4672 C.3     1  LIG1       -0.0590
     62 H           6.0575    0.5923   11.0074 H       1  LIG1        0.0235
     63 H           6.6153    1.7000   10.0459 H       1  LIG1        0.0235
     64 H           5.1959    1.0845    9.7945 H       1  LIG1        0.0235
     65 C           5.1191    3.7277    8.3067 C.3     1  LIG1       -0.0580
     66 H           5.1854    2.7790    8.4351 H       1  LIG1        0.0236
     67 H           5.9776    4.0787    8.0594 H       1  LIG1        0.0236
     68 H           4.4844    3.9128    7.6118 H       1  LIG1        0.0236
     69 C           4.2529    6.7165   10.6977 C.2     1  LIG1        0.3156
     70 C           6.5769    7.0442    6.4516 C.3     1  LIG1       -0.0590
     71 H           6.1073    7.2197    5.6336 H       1  LIG1        0.0235
     72 H           6.4148    6.1393    6.7249 H       1  LIG1        0.0235
     73 H           7.5184    7.1731    6.3132 H       1  LIG1        0.0235
     74 C           8.6423   10.1961    9.1673 C.3     1  LIG1       -0.0598
     75 H           9.1074   10.0193    9.9879 H       1  LIG1        0.0235
     76 H           8.8971   11.0599    8.8330 H       1  LIG1        0.0235
     77 H           8.8685    9.5243    8.5180 H       1  LIG1        0.0235
     78 C           6.8355   11.2175   10.5018 C.3     1  LIG1       -0.0598
     79 H           7.3586   11.0242   11.2837 H       1  LIG1        0.0235
     80 H           5.9023   11.1942   10.7283 H       1  LIG1        0.0235
     81 H           7.0631   12.0908   10.1758 H       1  LIG1        0.0235
     82 O           1.9214    8.6633   12.3687 O.3     1  LIG1       -0.3982
     83 H           1.2438    8.3480   12.7066 H       1  LIG1        0.2090
     84 C           2.5976    9.3996   13.3034 C.3     1  LIG1        0.0330
     85 H           3.5429    9.3022   13.1652 H       1  LIG1        0.0521
     86 H           2.3699    9.0870   14.1820 H       1  LIG1        0.0521
     87 H           2.3549   10.3236   13.2205 H       1  LIG1        0.0521
@<TRIPOS>BOND
     1    71    70    1
     2    52    50    1
     3    73    70    1
     4    70    72    1
     5    70    40    1
     6    51    50    1
     7    39    37    1
     8    50    40    1
     9    50    47    1
    10    35    34    1
    11    40    37    1
    12    40    41    1
    13    68    65    1
    14    37    34    1
    15    37    38    1
    16    49    47    1
    17    67    65    1
    18    47    48    1
    19    47    46    1
    20    34    36    1
    21    34    33    1
    22    65    66    1
    23    65    23    1
    24    77    74    1
    25    42    41    1
    26    76    74    1
    27    41    32    1
    28    41    43    1
    29    21    20    1
    30    74    46    1
    31    74    75    1
    32    46    43    1
    33    46    78    1
    34    32    33    1
    35    32    30    2
    36    33    23    1
    37    33    69    1
    38    19    17    1
    39    23    20    1
    40    23    24    1
    41    64    61    1
    42    20    17    1
    43    20    22    1
    44    43    44    1
    45    43    45    1
    46    31    30    1
    47    30    27    1
    48    29    27    1
    49    63    61    1
    50    81    78    1
    51    17    18    1
    52    17    15    1
    53    61    62    1
    54    61    26    1
    55     3    69    1
    56     3     4    1
    57    78    80    1
    58    78    79    1
    59    56    53    1
    60    27    24    1
    61    27    28    1
    62    69     5    2
    63    24    26    1
    64    24    25    1
    65    26    15    1
    66    26     6    1
    67    53    55    1
    68    53    54    1
    69    53    14    1
    70    15    16    1
    71    15    14    1
    72    59    57    1
    73    14    57    1
    74    14    12    1
    75    82    83    1
    76    82    84    1
    77    57    60    1
    78    57    58    1
    79     7     6    1
    80     6     8    1
    81     6     9    1
    82    10     9    1
    83    85    84    1
    84    87    84    1
    85    84    86    1
    86     9    12    1
    87     9    11    1
    88    12    13    1
    89    12     1    1
    90     1     2    1
