@<TRIPOS>MOLECULE
2-[(2-Oxopyrrolidin-1-yl)carbonylmethyl]-2,3-dihydro-1H-isoindole-1,3-dione
 32 34 0 0 0
SMALL
GASTEIGER

@<TRIPOS>ATOM
      1 O          -0.4963    1.1695   16.4796 O.2     1  LIG1       -0.2695
      2 O           2.9486    4.1519   16.2659 O.2     1  LIG1       -0.2695
      3 O          -0.1560    3.9999   18.6716 O.2     1  LIG1       -0.2734
      4 O           2.7871    1.6684   20.4421 O.2     1  LIG1       -0.2752
      5 N           1.2390    2.6750   16.7121 N.am    1  LIG1       -0.2252
      6 N           0.9541    3.0873   20.4002 N.am    1  LIG1       -0.2408
      7 C           0.3073    1.9238   15.9870 C.2     1  LIG1        0.2542
      8 C           2.0348    3.4536   15.8855 C.2     1  LIG1        0.2542
      9 C           2.0024    3.7168   13.2984 C.ar    1  LIG1       -0.0489
     10 H           2.7031    4.3564   13.2621 H       1  LIG1        0.0625
     11 C           1.3822    3.2612   12.1446 C.ar    1  LIG1       -0.0610
     12 H           1.6552    3.6044   11.3029 H       1  LIG1        0.0618
     13 C           0.3762    2.3185   12.1990 C.ar    1  LIG1       -0.0610
     14 H          -0.0236    2.0170   11.3922 H       1  LIG1        0.0618
     15 C          -0.0645    1.8022   13.4119 C.ar    1  LIG1       -0.0489
     16 H          -0.7556    1.1509   13.4491 H       1  LIG1        0.0625
     17 C           0.5412    2.2702   14.5595 C.ar    1  LIG1        0.0494
     18 C           1.5585    3.1988   14.5029 C.ar    1  LIG1        0.0494
     19 C           1.5666    2.4334   18.0969 C.3     1  LIG1        0.0998
     20 H           2.5204    2.6533   18.2465 H       1  LIG1        0.0565
     21 H           1.4424    1.4716   18.2967 H       1  LIG1        0.0565
     22 C           0.7150    3.2488   19.0458 C.2     1  LIG1        0.2397
     23 C           1.9818    2.3785   21.0173 C.2     1  LIG1        0.2219
     24 C           1.9121    2.6583   22.4914 C.3     1  LIG1        0.0260
     25 H           2.5913    3.3279   22.7565 H       1  LIG1        0.0359
     26 H           2.0550    1.8305   23.0161 H       1  LIG1        0.0359
     27 C           0.5030    3.1996   22.7021 C.3     1  LIG1       -0.0284
     28 H          -0.1322    2.4676   22.9044 H       1  LIG1        0.0285
     29 H           0.4826    3.8575   23.4403 H       1  LIG1        0.0285
     30 C           0.1655    3.8592   21.3790 C.3     1  LIG1        0.0228
     31 H          -0.8029    3.7951   21.1853 H       1  LIG1        0.0469
     32 H           0.4321    4.8127   21.3778 H       1  LIG1        0.0469
@<TRIPOS>BOND
     1    12    11    1
     2    14    13    1
     3    11    13   ar
     4    11     9   ar
     5    13    15   ar
     6    10     9    1
     7     9    18   ar
     8    15    16    1
     9    15    17   ar
    10    18    17   ar
    11    18     8    1
    12    17     7    1
    13     8     2    2
    14     8     5   am
    15     7     1    2
    16     7     5   am
    17     5    19    1
    18    19    20    1
    19    19    21    1
    20    19    22    1
    21     3    22    2
    22    22     6   am
    23     6    23   am
    24     6    30    1
    25     4    23    2
    26    23    24    1
    27    31    30    1
    28    32    30    1
    29    30    27    1
    30    24    27    1
    31    24    25    1
    32    24    26    1
    33    27    28    1
    34    27    29    1
