@<TRIPOS>MOLECULE
Ethyl 4-[1-(4-bromophenyl)-3-methyl-5-oxo-4,5-dihydro- 1H-1,2,4-triazol-4-yliminomethyl]phenoxyacetate
 96 100 0 0 0
SMALL
GASTEIGER

@<TRIPOS>ATOM
      1 BR         -5.4583   10.8778   10.4027 Br      1  LIG1       -0.0503
      2 O          -1.5250    5.0985    9.4160 O.2     1  LIG1       -0.2425
      3 O           3.5490   -1.3291    7.7703 O.3     1  LIG1       -0.4808
      4 O           1.9821   -3.2213    9.0689 O.2     1  LIG1       -0.2470
      5 O           3.3230   -3.0957   10.8551 O.3     1  LIG1       -0.4626
      6 N          -2.2883    6.4298    6.2889 N.ar    1  LIG1       -0.1472
      7 N          -2.3390    6.4469    7.6819 N.ar    1  LIG1       -0.1787
      8 N          -1.1490    4.7405    7.1258 N.ar    1  LIG1       -0.1645
      9 N          -0.3237    3.6267    7.0320 N.2     1  LIG1       -0.1687
     10 C          -1.6573    5.4001    8.2432 C.ar    1  LIG1        0.3720
     11 C          -1.5740    5.3967    6.0010 C.ar    1  LIG1        0.1535
     12 C          -3.0637    7.4771    8.3381 C.ar    1  LIG1        0.0708
     13 C          -3.7601    8.4012    7.5717 C.ar    1  LIG1       -0.0350
     14 H          -3.7467    8.3373    6.6433 H       1  LIG1        0.0639
     15 C          -4.4712    9.4120    8.1809 C.ar    1  LIG1       -0.0458
     16 H          -4.9443   10.0293    7.6718 H       1  LIG1        0.0629
     17 C          -4.4696    9.4946    9.5482 C.ar    1  LIG1        0.0180
     18 C          -3.7846    8.5966   10.3306 C.ar    1  LIG1       -0.0458
     19 H          -3.7945    8.6718   11.2575 H       1  LIG1        0.0629
     20 C          -3.0769    7.5736    9.7152 C.ar    1  LIG1       -0.0350
     21 H          -2.6115    6.9549   10.2306 H       1  LIG1        0.0639
     22 C           0.0970    3.0813    8.0951 C.2     1  LIG1        0.0557
     23 H          -0.1640    3.4107    8.9255 H       1  LIG1        0.0853
     24 C           0.9939    1.9326    8.0095 C.ar    1  LIG1       -0.0050
     25 C           1.4099    1.3115    9.1775 C.ar    1  LIG1       -0.0496
     26 H           1.1122    1.6377    9.9960 H       1  LIG1        0.0625
     27 C           2.2617    0.2127    9.1524 C.ar    1  LIG1       -0.0193
     28 H           2.5268   -0.1987    9.9432 H       1  LIG1        0.0654
     29 C           2.7073   -0.2586    7.9373 C.ar    1  LIG1        0.1213
     30 C           2.3043    0.3600    6.7590 C.ar    1  LIG1       -0.0193
     31 H           2.6086    0.0380    5.9410 H       1  LIG1        0.0654
     32 C           1.4604    1.4434    6.7971 C.ar    1  LIG1       -0.0496
     33 H           1.1989    1.8533    6.0032 H       1  LIG1        0.0625
     34 C           4.0265   -1.9797    8.9271 C.3     1  LIG1        0.1858
     35 H           4.3349   -1.3131    9.5610 H       1  LIG1        0.0815
     36 H           4.7841   -2.5351    8.6878 H       1  LIG1        0.0815
     37 C           2.9727   -2.8404    9.5920 C.2     1  LIG1        0.3451
     38 C           2.5008   -4.0576   11.6366 C.3     1  LIG1        0.0898
     39 H           2.4514   -3.7749   12.5626 H       1  LIG1        0.0694
     40 H           1.5993   -4.0898   11.2793 H       1  LIG1        0.0694
     41 C           3.1116   -5.3715   11.5527 C.3     1  LIG1       -0.0306
     42 H           3.1566   -5.6458   10.6345 H       1  LIG1        0.0262
     43 H           2.5843   -6.0011   12.0499 H       1  LIG1        0.0262
     44 H           3.9985   -5.3361   11.9194 H       1  LIG1        0.0262
     45 C          -1.2407    4.9432    4.6234 C.3     1  LIG1       -0.0026
     46 H          -1.6076    5.5608    3.9866 H       1  LIG1        0.0309
     47 H          -1.6123    4.0713    4.4744 H       1  LIG1        0.0309
     48 H          -0.2867    4.9074    4.5210 H       1  LIG1        0.0309
     49 BR         -9.4608   19.6920    2.9301 Br      2  LIG2       -0.0503
     50 O          -5.2839   14.0935    1.8486 O.2     2  LIG2       -0.2425
     51 O           0.1713    8.0230    0.1356 O.3     2  LIG2       -0.4808
     52 O           2.3650    9.3888    1.1526 O.2     2  LIG2       -0.2470
     53 O           2.2220    8.1960    3.0473 O.3     2  LIG2       -0.4626
     54 N          -5.9781   15.5539   -1.2384 N.ar    2  LIG2       -0.1472
     55 N          -6.0892   15.4993    0.1527 N.ar    2  LIG2       -0.1787
     56 N          -4.8031   13.8654   -0.4436 N.ar    2  LIG2       -0.1645
     57 N          -3.9718   12.7582   -0.5579 N.2     2  LIG2       -0.1687
     58 C          -5.3786   14.4445    0.6823 C.ar    2  LIG2        0.3720
     59 C          -5.2092   14.5640   -1.5535 C.ar    2  LIG2        0.1535
     60 C          -6.8790   16.4511    0.8292 C.ar    2  LIG2        0.0708
     61 C          -7.6929   17.2991    0.0831 C.ar    2  LIG2       -0.0350
     62 H          -7.7183   17.2170   -0.8421 H       2  LIG2        0.0639
     63 C          -8.4594   18.2574    0.7010 C.ar    2  LIG2       -0.0458
     64 H          -8.9983   18.8290    0.2020 H       2  LIG2        0.0629
     65 C          -8.4143   18.3567    2.0691 C.ar    2  LIG2        0.0180
     66 C          -7.6297   17.5229    2.8330 C.ar    2  LIG2       -0.0458
     67 H          -7.6259   17.5982    3.7598 H       2  LIG2        0.0629
     68 C          -6.8485   16.5705    2.2027 C.ar    2  LIG2       -0.0350
     69 H          -6.3022   16.0102    2.7064 H       2  LIG2        0.0639
     70 C          -3.5544   12.1981    0.5015 C.2     2  LIG2        0.0557
     71 H          -3.8350   12.5062    1.3330 H       2  LIG2        0.0853
     72 C          -2.6330   11.0703    0.4089 C.ar    2  LIG2       -0.0050
     73 C          -2.0090   10.6153    1.5564 C.ar    2  LIG2       -0.0496
     74 H          -2.2283   11.0010    2.3739 H       2  LIG2        0.0625
     75 C          -1.0655    9.5989    1.5173 C.ar    2  LIG2       -0.0193
     76 H          -0.6543    9.3110    2.2994 H       2  LIG2        0.0654
     77 C          -0.7457    9.0242    0.3162 C.ar    2  LIG2        0.1213
     78 C          -1.3635    9.4653   -0.8573 C.ar    2  LIG2       -0.0193
     79 H          -1.1422    9.0773   -1.6732 H       2  LIG2        0.0654
     80 C          -2.2989   10.4725   -0.8052 C.ar    2  LIG2       -0.0496
     81 H          -2.7128   10.7576   -1.5878 H       2  LIG2        0.0625
     82 C           0.8438    7.5353    1.2848 C.3     2  LIG2        0.1858
     83 H           1.2626    6.6870    1.0704 H       2  LIG2        0.0815
     84 H           0.1957    7.3783    1.9886 H       2  LIG2        0.0815
     85 C           1.8950    8.4929    1.7836 C.2     2  LIG2        0.3451
     86 C           3.3175    8.9453    3.6696 C.3     2  LIG2        0.0898
     87 H           3.1191    9.0922    4.6080 H       2  LIG2        0.0694
     88 H           3.4061    9.8099    3.2408 H       2  LIG2        0.0694
     89 C           4.5771    8.1999    3.5438 C.3     2  LIG2       -0.0306
     90 H           4.4720    7.3251    3.9244 H       2  LIG2        0.0262
     91 H           5.2747    8.6699    4.0068 H       2  LIG2        0.0262
     92 H           4.8079    8.1181    2.6147 H       2  LIG2        0.0262
     93 C          -4.8044   14.2161   -2.9325 C.3     2  LIG2       -0.0026
     94 H          -5.1221   13.3364   -3.1476 H       2  LIG2        0.0309
     95 H          -3.8474   14.2362   -3.0000 H       2  LIG2        0.0309
     96 H          -5.1811   14.8518   -3.5469 H       2  LIG2        0.0309
@<TRIPOS>BOND
     1    96    93    1
     2    94    93    1
     3    95    93    1
     4    93    59    1
     5    79    78    1
     6    81    80    1
     7    59    54   ar
     8    59    56   ar
     9    54    55   ar
    10    78    80   ar
    11    78    77   ar
    12    62    61    1
    13    80    72   ar
    14    57    56    1
    15    57    70    2
    16    56    58   ar
    17    61    63   ar
    18    61    60   ar
    19    51    77    1
    20    51    82    1
    21    55    58   ar
    22    55    60    1
    23    64    63    1
    24    77    75   ar
    25    72    70    1
    26    72    73   ar
    27    70    71    1
    28    58    50    2
    29    63    65   ar
    30    60    68   ar
    31    83    82    1
    32    52    85    2
    33    82    85    1
    34    82    84    1
    35    75    73   ar
    36    75    76    1
    37    73    74    1
    38    85    53    1
    39    65    66   ar
    40    65    49    1
    41    68    69    1
    42    68    66   ar
    43    92    89    1
    44    66    67    1
    45    53    86    1
    46    88    86    1
    47    89    86    1
    48    89    90    1
    49    89    91    1
    50    86    87    1
    51    46    45    1
    52    47    45    1
    53    48    45    1
    54    45    11    1
    55    31    30    1
    56    11     6   ar
    57    11     8   ar
    58    33    32    1
    59     6     7   ar
    60    14    13    1
    61    30    32   ar
    62    30    29   ar
    63    32    24   ar
    64     9     8    1
    65     9    22    2
    66     8    10   ar
    67    13    15   ar
    68    13    12   ar
    69    16    15    1
    70     7    10   ar
    71     7    12    1
    72     3    29    1
    73     3    34    1
    74    29    27   ar
    75    24    22    1
    76    24    25   ar
    77    22    23    1
    78    15    17   ar
    79    10     2    2
    80    12    20   ar
    81    36    34    1
    82    34    35    1
    83    34    37    1
    84     4    37    2
    85    27    25   ar
    86    27    28    1
    87    25    26    1
    88    17    18   ar
    89    17     1    1
    90    37     5    1
    91    20    21    1
    92    20    18   ar
    93    18    19    1
    94    42    41    1
    95     5    38    1
    96    40    38    1
    97    41    38    1
    98    41    44    1
    99    41    43    1
   100    38    39    1
