@<TRIPOS>MOLECULE
2-Methoxymethyl-1,3-dithiolane 1,1,3,3-tetraoxide
 44 44 0 0 0
SMALL
GASTEIGER

@<TRIPOS>ATOM
      1 H           1.7046    9.6178    8.2306 H       1  LIG1        0.0802
      2 H           2.6057    6.5855    6.1821 H       1  LIG1        0.0517
      3 H           2.5300    7.4610    4.9440 H       1  LIG1        0.0517
      4 H          -1.8826    5.4758   12.6221 H       2  LIG2        0.0596
      5 H          -2.3287    7.9366   13.2596 H       2  LIG2        0.0524
      6 H          -3.6090    3.9266   13.6180 H       2  LIG2        0.0802
      7 H           0.0856    7.9866    9.0111 H       1  LIG1        0.0596
      8 H           4.6432    7.7826    6.2119 H       1  LIG1        0.0517
      9 H          -6.1242    2.2176   11.2848 H       2  LIG2        0.0517
     10 H           1.3357    7.0149    9.3129 H       1  LIG1        0.0596
     11 H          -5.3260    1.9524   12.5937 H       2  LIG2        0.0517
     12 H          -3.0240    5.6898   11.6361 H       2  LIG2        0.0596
     13 H          -3.9108    1.2345   10.9221 H       2  LIG2        0.0517
     14 H          -4.1997    2.5971   10.1713 H       2  LIG2        0.0517
     15 H           3.8330    9.0732    6.0334 H       1  LIG1        0.0517
     16 H           0.4947    8.7759   12.1546 H       1  LIG1        0.0524
     17 H          -3.8225    8.3255   13.6279 H       2  LIG2        0.0524
     18 H          -3.5607    7.9609   12.1121 H       2  LIG2        0.0524
     19 H          -0.6307    8.5486   11.2480 H       1  LIG1        0.0524
     20 H           0.2937    7.3436   11.6163 H       1  LIG1        0.0524
     21 S           1.1891    8.2597    6.4823 S.O2    1  LIG1       -0.0049
     22 S          -5.3419    4.0846   12.2285 S.O2    2  LIG2       -0.0049
     23 S          -2.7654    2.7899   11.8863 S.O2    2  LIG2       -0.0049
     24 S           3.6018    8.3674    8.0941 S.O2    1  LIG1       -0.0049
     25 C           1.8098    8.6815    8.1403 C.3     1  LIG1        0.2152
     26 O           0.0848    7.3507    6.5874 O.2     1  LIG1       -0.1724
     27 O           0.9930    9.4972    5.7802 O.2     1  LIG1       -0.1724
     28 O          -2.3185    1.8418   12.8587 O.2     2  LIG2       -0.1724
     29 C           2.6170    7.4520    5.8251 C.3     1  LIG1        0.0873
     30 C          -3.6092    4.1441   12.7579 C.3     2  LIG2        0.2152
     31 O           3.8437    7.0795    8.6812 O.2     1  LIG1       -0.1724
     32 O          -6.2102    4.3386   13.3440 O.2     2  LIG2       -0.1724
     33 O          -5.4745    4.8772   11.0400 O.2     2  LIG2       -0.1724
     34 O          -1.8017    3.3295   10.9751 O.2     2  LIG2       -0.1724
     35 C          -5.3947    2.3740   11.7717 C.3     2  LIG2        0.0873
     36 C          -4.1404    2.1079   10.9809 C.3     2  LIG2        0.0873
     37 O          -3.6560    6.4178   13.3081 O.3     2  LIG2       -0.3794
     38 O           1.2414    8.6617   10.4309 O.3     1  LIG1       -0.3794
     39 C           3.8052    8.2459    6.3329 C.3     1  LIG1        0.0873
     40 O           4.3101    9.5046    8.6028 O.2     1  LIG1       -0.1724
     41 C           1.0553    7.9496    9.2403 C.3     1  LIG1        0.0894
     42 C          -2.9675    5.4947   12.4986 C.3     2  LIG2        0.0894
     43 C           0.2869    8.2699   11.4123 C.3     1  LIG1        0.0366
     44 C          -3.2969    7.7607   13.0159 C.3     2  LIG2        0.0366
@<TRIPOS>BOND
     1     3    29    1
     2    27    21    2
     3    29     2    1
     4    29    39    1
     5    29    21    1
     6    15    39    1
     7     8    39    1
     8    39    24    1
     9    21    26    2
    10    21    25    1
    11    24    25    1
    12    24    40    2
    13    24    31    2
    14    25     1    1
    15    25    41    1
    16     7    41    1
    17    41    10    1
    18    41    38    1
    19    14    36    1
    20    38    43    1
    21    13    36    1
    22    34    23    2
    23    36    35    1
    24    36    23    1
    25    33    22    2
    26    19    43    1
    27     9    35    1
    28    43    20    1
    29    43    16    1
    30    12    42    1
    31    35    22    1
    32    35    11    1
    33    23    30    1
    34    23    28    2
    35    18    44    1
    36    22    30    1
    37    22    32    2
    38    42     4    1
    39    42    30    1
    40    42    37    1
    41    30     6    1
    42    44     5    1
    43    44    37    1
    44    44    17    1
