@<TRIPOS>MOLECULE
L-aspartic acid monohydrate
 19 17 0 0 0
SMALL
GASTEIGER

@<TRIPOS>ATOM
      1 O           4.9328    1.7110   -0.0465 O.co2   1  ASP1       -0.2400
      2 OXT         5.5552   -0.4273    0.0130 O.co2   1  ASP1       -0.2400
      3 C           4.8937    0.5628    0.4205 C.2     1  ASP1        0.4032
      4 CA          3.8707    0.2603    1.5286 C.3     1  ASP1        0.0887
      5 HA          3.1483   -0.2613    1.1199 H       1  ASP1        0.0975
      6 N           3.2678    1.5421    2.0188 N.4     1  ASP1        0.2293
      7 H1          2.9550    2.0066    1.3266 H       1  ASP1        0.2003
      8 H2          3.8891    2.0204    2.4406 H       1  ASP1        0.2003
      9 H3          2.6013    1.3613    2.5800 H       1  ASP1        0.2003
     10 CB          4.4165   -0.5599    2.6851 C.3     1  ASP1        0.0980
     11 HB1         4.6037   -1.4576    2.3721 H       1  ASP1        0.0439
     12 HB2         3.7355   -0.6227    3.3726 H       1  ASP1        0.0439
     13 CG          5.6820    0.0196    3.2994 C.2     1  ASP1        0.3107
     14 OD1         6.2116    1.0401    2.8233 O.2     1  ASP1       -0.2508
     15 OD2         6.1664   -0.6188    4.3507 O.3     1  ASP1       -0.4805
     16 HD2         6.8424   -0.2377    4.6153 H       1  ASP1        0.2951
     17 O           1.6845    7.5639    1.3372 O.3     1  HOH1       -0.4105
     18 H           1.1381    8.0167    1.0100 H       0  HOH0        0.2052
     19 H           1.8940    7.0149    0.7962 H       0  HOH0        0.2052
@<TRIPOS>BOND
     1     1     3   ar
     2     2     3   ar
     3     3     4    1
     4    19    17    1
     5    18    17    1
     6     5     4    1
     7     7     6    1
     8     4     6    1
     9     4    10    1
    10     6     8    1
    11     6     9    1
    12    11    10    1
    13    10    13    1
    14    10    12    1
    15    14    13    2
    16    13    15    1
    17    15    16    1
