@<TRIPOS>MOLECULE
4,5-Bis(1-naphthoxy)phthalonitrile
 48 52 0 0 0
SMALL
GASTEIGER

@<TRIPOS>ATOM
      1 O           4.3297    7.5308    0.5323 O.3     1  LIG1       -0.4517
      2 O           5.8690    6.4135    2.4050 O.3     1  LIG1       -0.4517
      3 N          -0.1137    3.7963    0.9325 N.1     1  LIG1       -0.1908
      4 N           2.0789    2.2803    4.0436 N.1     1  LIG1       -0.1908
      5 C           3.8543    6.4361    1.2227 C.ar    1  LIG1        0.1718
      6 C           2.6272    5.8979    0.8981 C.ar    1  LIG1        0.0030
      7 C           2.1665    4.7813    1.5776 C.ar    1  LIG1        0.0728
      8 C           2.9277    4.2347    2.6052 C.ar    1  LIG1        0.0728
      9 C           4.1770    4.7589    2.9229 C.ar    1  LIG1        0.0030
     10 C           0.8914    4.2120    1.2315 C.1     1  LIG1        0.1006
     11 C           2.4227    3.1307    3.3818 C.1     1  LIG1        0.1006
     12 C           4.6468    5.8409    2.2120 C.ar    1  LIG1        0.1718
     13 C           4.4736    8.7175    1.2894 C.ar    1  LIG1        0.1363
     14 C           3.6213    9.0495    2.2797 C.ar    1  LIG1       -0.0187
     15 C           3.8155   10.2653    2.9680 C.ar    1  LIG1       -0.0577
     16 C           4.8245   11.1008    2.6189 C.ar    1  LIG1       -0.0538
     17 C           5.6997   10.7755    1.5767 C.ar    1  LIG1       -0.0144
     18 C           5.5452    9.5529    0.8913 C.ar    1  LIG1        0.0244
     19 C           6.4245    9.2250   -0.1324 C.ar    1  LIG1       -0.0505
     20 C           7.4399   10.0794   -0.4932 C.ar    1  LIG1       -0.0611
     21 C           7.5873   11.2925    0.1863 C.ar    1  LIG1       -0.0612
     22 C           6.7626   11.6334    1.1894 C.ar    1  LIG1       -0.0539
     23 C           6.7039    5.8959    3.4151 C.ar    1  LIG1        0.1363
     24 C           7.4691    4.8058    3.1474 C.ar    1  LIG1       -0.0187
     25 C           8.3495    4.3449    4.1299 C.ar    1  LIG1       -0.0577
     26 C           8.4532    4.9793    5.3133 C.ar    1  LIG1       -0.0538
     27 C           7.6737    6.1302    5.5967 C.ar    1  LIG1       -0.0144
     28 C           6.7700    6.5984    4.6143 C.ar    1  LIG1        0.0244
     29 C           6.0215    7.7613    4.8711 C.ar    1  LIG1       -0.0505
     30 C           6.1848    8.4256    6.0340 C.ar    1  LIG1       -0.0611
     31 C           7.0653    7.9689    7.0145 C.ar    1  LIG1       -0.0612
     32 C           7.7831    6.8485    6.7939 C.ar    1  LIG1       -0.0539
     33 H           2.1554    6.2664    0.1579 H       1  LIG1        0.0669
     34 H           4.6476    4.3925    3.6141 H       1  LIG1        0.0669
     35 H           2.9002    8.4816    2.5591 H       1  LIG1        0.0654
     36 H           3.1990   10.4728    3.6181 H       1  LIG1        0.0619
     37 H           4.9199   11.9282    3.0886 H       1  LIG1        0.0624
     38 H           6.2958    8.3678   -0.5873 H       1  LIG1        0.0625
     39 H           8.0018    9.8601   -1.2845 H       1  LIG1        0.0618
     40 H           8.2675   11.9144   -0.0490 H       1  LIG1        0.0618
     41 H           6.8447   12.4661    1.6276 H       1  LIG1        0.0624
     42 H           7.4294    4.3596    2.2159 H       1  LIG1        0.0654
     43 H           8.8050    3.5654    3.9220 H       1  LIG1        0.0619
     44 H           8.9617    4.7250    5.9909 H       1  LIG1        0.0624
     45 H           5.5397    8.0853    4.2064 H       1  LIG1        0.0625
     46 H           5.6565    9.2343    6.0987 H       1  LIG1        0.0618
     47 H           7.2170    8.4924    7.7656 H       1  LIG1        0.0618
     48 H           8.3711    6.5280    7.3832 H       1  LIG1        0.0624
@<TRIPOS>BOND
     1    39    20    1
     2    38    19    1
     3    20    19   ar
     4    20    21   ar
     5    19    18   ar
     6    40    21    1
     7    33     6    1
     8    21    22   ar
     9     1     5    1
    10     1    13    1
    11    18    13   ar
    12    18    17   ar
    13     6     5   ar
    14     6     7   ar
    15     3    10    3
    16    22    17   ar
    17    22    41    1
    18     5    12   ar
    19    10     7    1
    20    13    14   ar
    21    17    16   ar
    22     7     8   ar
    23    12     2    1
    24    12     9   ar
    25    42    24    1
    26    14    35    1
    27    14    15   ar
    28     2    23    1
    29     8     9   ar
    30     8    11    1
    31    16    15   ar
    32    16    37    1
    33     9    34    1
    34    15    36    1
    35    24    23   ar
    36    24    25   ar
    37    11     4    3
    38    23    28   ar
    39    43    25    1
    40    25    26   ar
    41    45    29    1
    42    28    29   ar
    43    28    27   ar
    44    29    30   ar
    45    26    27   ar
    46    26    44    1
    47    27    32   ar
    48    30    46    1
    49    30    31   ar
    50    32    31   ar
    51    32    48    1
    52    31    47    1
