@<TRIPOS>MOLECULE
?
 66 66 0 0 0
SMALL
GASTEIGER

@<TRIPOS>ATOM
      1 C          10.2992    2.5708    0.3916 C.ar    1  LIG1       -0.0339
      2 O           7.8329   -1.8901   -1.2956 O.2     2  LIG2       -0.2503
      3 O           6.9577   -0.5312   -2.7945 O.3     2  LIG2       -0.4802
      4 O           9.8237   -0.3142   -0.5961 O.3     1  LIG1       -0.4802
      5 O           8.9705    1.0552   -2.1147 O.2     1  LIG1       -0.2503
      6 C           9.2882    4.0165    2.5975 C.ar    1  LIG1       -0.0471
      7 C           9.4593    3.6533    0.2182 C.ar    1  LIG1       -0.0575
      8 C          10.1105    2.9139    2.7684 C.ar    1  LIG1       -0.0583
      9 C           8.9591    4.3572    1.2981 C.ar    1  LIG1       -0.0583
     10 C          10.8435    1.8306   -0.8168 C.3     1  LIG1        0.0784
     11 C          10.6023    2.2067    1.6934 C.ar    1  LIG1       -0.0575
     12 C           8.8119    4.7936    3.7834 C.3     1  LIG1       -0.0253
     13 C           9.8669    5.7282    4.3745 C.3     1  LIG1       -0.0427
     14 C           9.7994    0.8149   -1.2445 C.2     1  LIG1        0.3119
     15 C          10.1921    6.8669    3.4405 C.3     1  LIG1       -0.0624
     16 C          12.1973    1.1757   -0.5948 C.3     1  LIG1       -0.0482
     17 C           9.4000    6.2530    5.7300 C.3     1  LIG1       -0.0624
     18 H          12.2421    0.3777    0.2120 H       1  LIG1        0.0241
     19 H           6.1394   -7.6585   -9.5396 H       2  LIG2        0.0232
     20 H           7.3447   -8.0844   -6.6964 H       2  LIG2        0.0232
     21 H           8.9745   -0.8518   -0.9602 H       1  LIG1        0.2951
     22 H           6.9191   -6.1477   -9.7641 H       2  LIG2        0.0232
     23 H           7.9339   -7.4335   -9.1281 H       2  LIG2        0.0232
     24 H           9.2709    7.4978    3.5664 H       1  LIG1        0.0232
     25 H          12.4411    0.7554   -1.4715 H       1  LIG1        0.0241
     26 H          10.8993    2.4832   -1.5962 H       1  LIG1        0.0459
     27 H          12.8681    1.8965   -0.3866 H       1  LIG1        0.0241
     28 H          10.3209    6.6379    2.4940 H       1  LIG1        0.0232
     29 H          11.0131    7.3692    3.8657 H       1  LIG1        0.0232
     30 H           8.5704    4.1226    4.4892 H       1  LIG1        0.0316
     31 H           8.0122    5.3441    3.4792 H       1  LIG1        0.0316
     32 H          10.3537    2.6198    3.7161 H       1  LIG1        0.0620
     33 H           8.7117    6.8308    5.4245 H       1  LIG1        0.0232
     34 H           8.3797    5.0789    1.1597 H       1  LIG1        0.0620
     35 H          10.0131    6.7584    6.0605 H       1  LIG1        0.0232
     36 H          11.2334    1.4706    1.8955 H       1  LIG1        0.0621
     37 H           9.1473    3.8574   -0.6609 H       1  LIG1        0.0621
     38 H           9.1080    5.4566    6.4346 H       1  LIG1        0.0232
     39 H          10.8419    5.2637    4.4194 H       1  LIG1        0.0299
     40 H           4.8031   -4.1949   -1.5837 H       2  LIG2        0.0241
     41 H           5.8041   -5.9548   -8.0058 H       2  LIG2        0.0299
     42 H           8.4394   -5.9548   -7.1952 H       2  LIG2        0.0316
     43 H           5.2826   -3.0939   -0.6235 H       2  LIG2        0.0241
     44 H           7.7257   -4.8217   -8.0432 H       2  LIG2        0.0316
     45 H           6.2039   -7.2647   -5.9108 H       2  LIG2        0.0232
     46 H           5.6860   -8.2291   -7.2825 H       2  LIG2        0.0232
     47 H           6.1611   -3.2466   -7.0207 H       2  LIG2        0.0620
     48 H           5.2015   -2.1296   -2.7060 H       2  LIG2        0.0459
     49 H           8.2047   -5.9307   -4.6887 H       2  LIG2        0.0620
     50 H           7.4214   -4.8056   -2.8307 H       2  LIG2        0.0621
     51 H           5.4680   -2.2742   -4.9631 H       2  LIG2        0.0621
     52 H           7.7326   -0.0563   -2.5938 H       2  LIG2        0.2951
     53 H           6.3751   -4.0342   -0.9103 H       2  LIG2        0.0241
     54 C           6.9737   -1.6490   -2.1261 C.2     2  LIG2        0.3119
     55 C           5.9067   -2.6311   -2.4878 C.3     2  LIG2        0.0784
     56 C           5.5661   -3.5456   -1.3019 C.3     2  LIG2       -0.0482
     57 C           6.3513   -3.3873   -3.7286 C.ar    2  LIG2       -0.0339
     58 C           6.0079   -2.9292   -4.9880 C.ar    2  LIG2       -0.0575
     59 C           6.4380   -3.5906   -6.1265 C.ar    2  LIG2       -0.0583
     60 C           7.2264   -4.7172   -6.0555 C.ar    2  LIG2       -0.0471
     61 C           7.5794   -5.1552   -4.8010 C.ar    2  LIG2       -0.0583
     62 C           7.1526   -4.5043   -3.6674 C.ar    2  LIG2       -0.0575
     63 C           7.6281   -5.4614   -7.3125 C.3     2  LIG2       -0.0253
     64 C           6.5921   -6.4547   -7.8038 C.3     2  LIG2       -0.0427
     65 C           6.4469   -7.6151   -6.8536 C.3     2  LIG2       -0.0624
     66 C           6.9183   -6.9626   -9.1979 C.3     2  LIG2       -0.0624
@<TRIPOS>BOND
     1    22    66    1
     2    19    66    1
     3    66    23    1
     4    66    64    1
     5    44    63    1
     6    41    64    1
     7    64    63    1
     8    64    65    1
     9    63    42    1
    10    63    60    1
    11    46    65    1
    12    47    59    1
    13    65    20    1
    14    65    45    1
    15    59    60   ar
    16    59    58   ar
    17    60    61   ar
    18    58    51    1
    19    58    57   ar
    20    61    49    1
    21    61    62   ar
    22    57    62   ar
    23    57    55    1
    24    62    50    1
    25     3    52    1
    26     3    54    1
    27    48    55    1
    28    55    54    1
    29    55    56    1
    30    54     2    2
    31     5    14    2
    32    26    10    1
    33    40    56    1
    34    25    16    1
    35    56    53    1
    36    56    43    1
    37    14    10    1
    38    14     4    1
    39    21     4    1
    40    10    16    1
    41    10     1    1
    42    37     7    1
    43    16    27    1
    44    16    18    1
    45     7     1   ar
    46     7     9   ar
    47     1    11   ar
    48    34     9    1
    49     9     6   ar
    50    11    36    1
    51    11     8   ar
    52    28    15    1
    53     6     8   ar
    54     6    12    1
    55     8    32    1
    56    15    24    1
    57    15    29    1
    58    15    13    1
    59    31    12    1
    60    12    13    1
    61    12    30    1
    62    13    39    1
    63    13    17    1
    64    33    17    1
    65    17    35    1
    66    17    38    1
