@<TRIPOS>MOLECULE
pentane-2,4-dione dioxime
 10 9 0 0 0
SMALL
GASTEIGER

@<TRIPOS>ATOM
      1 O           3.6786    4.4027    1.2410 O.2     1  LIG1       -0.4093
      2 H           4.2323    4.1563    0.4541 H       1  LIG1        0.3278
      3 N           3.4153    5.7375    0.9082 N.2     1  LIG1       -0.0965
      4 C           2.6164    6.2967    1.7382 C.2     1  LIG1        0.0587
      5 C           2.0155    5.6033    2.9075 C.3     1  LIG1       -0.0228
      6 H           1.3239    6.1314    3.3281 H       1  LIG1        0.0290
      7 H           1.6169    4.7315    2.6709 H       1  LIG1        0.0290
      8 H           2.6913    5.3826    3.5671 H       1  LIG1        0.0290
      9 C           2.3325    7.7585    1.4938 C.3     1  LIG1        0.0175
     10 H           2.8541    8.0739    0.7230 H       1  LIG1        0.0375
@<TRIPOS>BOND
     1     2     1    1
     2    10     9    1
     3     3     1    1
     4     3     4    2
     5     9     4    1
     6     4     5    1
     7     7     5    1
     8     5     6    1
     9     5     8    1
