@<TRIPOS>MOLECULE
Methyl 4-tosyloxybenzoate
 35 36 0 0 0
SMALL
GASTEIGER

@<TRIPOS>ATOM
      1 S           3.8396    4.2572    2.6519 S.O2    1  LIG1        0.1510
      2 O           4.0835    3.3848    3.7508 O.2     1  LIG1       -0.1314
      3 O           2.6914    5.0947    2.6363 O.2     1  LIG1       -0.1314
      4 O           3.6466    3.3800    1.3297 O.3     1  LIG1       -0.3423
      5 O           7.0466   -1.9747    0.6156 O.2     1  LIG1       -0.2450
      6 O           7.2381   -0.9713   -1.3815 O.3     1  LIG1       -0.4645
      7 C           8.7769    7.5045    1.4757 C.3     1  LIG1       -0.0397
      8 C           7.5395    6.7040    1.7779 C.ar    1  LIG1       -0.0503
      9 C           7.6216    5.5398    2.5376 C.ar    1  LIG1       -0.0569
     10 C           6.4967    4.7860    2.8199 C.ar    1  LIG1       -0.0332
     11 C           5.2684    5.2069    2.3284 C.ar    1  LIG1        0.1281
     12 C           5.1563    6.3669    1.5735 C.ar    1  LIG1       -0.0332
     13 C           6.2921    7.1086    1.3027 C.ar    1  LIG1       -0.0569
     14 C           4.5283    2.3062    1.0526 C.ar    1  LIG1        0.1568
     15 C           4.5333    1.1768    1.8503 C.ar    1  LIG1       -0.0163
     16 C           5.3238    0.1088    1.4647 C.ar    1  LIG1       -0.0442
     17 C           6.0725    0.1760    0.2956 C.ar    1  LIG1        0.0592
     18 C           6.0502    1.3237   -0.4857 C.ar    1  LIG1       -0.0442
     19 C           5.2731    2.4071   -0.1012 C.ar    1  LIG1       -0.0163
     20 C           6.8354   -1.0373   -0.1057 C.2     1  LIG1        0.3389
     21 C           7.9143   -2.1427   -1.8893 C.3     1  LIG1        0.0820
     22 H           9.3428    7.5890    2.1842 H       1  LIG1        0.0278
     23 H           9.3056    7.1469    0.7841 H       1  LIG1        0.0278
     24 H           8.6142    8.3381    1.1761 H       1  LIG1        0.0278
     25 H           8.4663    5.2804    2.8815 H       1  LIG1        0.0621
     26 H           6.5683    4.0057    3.3365 H       1  LIG1        0.0638
     27 H           4.2898    6.6311    1.2391 H       1  LIG1        0.0638
     28 H           6.2425    7.9205    0.8009 H       1  LIG1        0.0621
     29 H           3.9789    1.1543    2.6379 H       1  LIG1        0.0655
     30 H           5.3257   -0.7036    1.9938 H       1  LIG1        0.0627
     31 H           6.5572    1.3618   -1.3273 H       1  LIG1        0.0627
     32 H           5.2278    3.1879   -0.6455 H       1  LIG1        0.0655
     33 H           7.4068   -2.9349   -1.7222 H       1  LIG1        0.0661
     34 H           8.7551   -2.2104   -1.5387 H       1  LIG1        0.0661
     35 H           7.9166   -2.0630   -2.8283 H       1  LIG1        0.0661
@<TRIPOS>BOND
     1    35    21    1
     2    21    33    1
     3    21    34    1
     4    21     6    1
     5     6    20    1
     6    31    18    1
     7    32    19    1
     8    18    19   ar
     9    18    17   ar
    10    20    17    1
    11    20     5    2
    12    19    14   ar
    13    17    16   ar
    14    23     7    1
    15    28    13    1
    16    14     4    1
    17    14    15   ar
    18    24     7    1
    19    27    12    1
    20    13    12   ar
    21    13     8   ar
    22     4     1    1
    23    16    15   ar
    24    16    30    1
    25     7     8    1
    26     7    22    1
    27    12    11   ar
    28     8     9   ar
    29    15    29    1
    30    11     1    1
    31    11    10   ar
    32     9    10   ar
    33     9    25    1
    34     3     1    2
    35     1     2    2
    36    10    26    1
