@<TRIPOS>MOLECULE
4-isobutyl-1,3-oxazolidine-2,5-dione
 22 22 0 0 0
SMALL
GASTEIGER

@<TRIPOS>ATOM
      1 O           3.9183    7.1278    7.3522 O.2     1  LIG1       -0.2259
      2 O           5.5483    6.9564    8.9144 O.3     1  LIG1       -0.3771
      3 O           6.9661    6.1200   10.4430 O.2     1  LIG1       -0.2482
      4 N           3.9960    5.3817    8.8632 N.am    1  LIG1       -0.2675
      5 H           3.3479    4.9801    8.5303 H       1  LIG1        0.1529
      6 C           4.3988    6.5040    8.2770 C.2     1  LIG1        0.4084
      7 C           5.9415    6.0190    9.8422 C.2     1  LIG1        0.3361
      8 C           4.8545    4.9711    9.9519 C.3     1  LIG1        0.1240
      9 H           5.2128    4.0980    9.8009 H       1  LIG1        0.0615
     10 C           4.1325    5.0224   11.3080 C.3     1  LIG1       -0.0216
     11 H           3.8446    5.9254   11.4475 H       1  LIG1        0.0291
     12 H           3.3492    4.4697   11.2439 H       1  LIG1        0.0291
     13 C           4.9469    4.5532   12.5199 C.3     1  LIG1       -0.0445
     14 H           5.7900    5.0484   12.5457 H       1  LIG1        0.0296
     15 C           5.2637    3.0715   12.4512 C.3     1  LIG1       -0.0626
     16 H           5.7731    2.7907   13.1937 H       1  LIG1        0.0232
     17 H           4.4551    2.5758   12.4046 H       1  LIG1        0.0232
     18 H           5.7720    2.8843   11.6452 H       1  LIG1        0.0232
     19 C           4.1634    4.8916   13.7944 C.3     1  LIG1       -0.0626
     20 H           3.9418    5.8210   13.8372 H       1  LIG1        0.0232
     21 H           4.6264    4.6451   14.5817 H       1  LIG1        0.0232
     22 H           3.3152    4.4026   13.7896 H       1  LIG1        0.0232
@<TRIPOS>BOND
     1     1     6    2
     2     6     4   am
     3     6     2    1
     4     5     4    1
     5     4     8    1
     6     2     7    1
     7     9     8    1
     8     7     8    1
     9     7     3    2
    10     8    10    1
    11    12    10    1
    12    10    11    1
    13    10    13    1
    14    18    15    1
    15    17    15    1
    16    15    13    1
    17    15    16    1
    18    13    14    1
    19    13    19    1
    20    22    19    1
    21    19    20    1
    22    19    21    1
