@<TRIPOS>MOLECULE
methyl 4-(3-nitrobenzenesulfonyloxy)benzoate
 34 35 0 0 0
SMALL
GASTEIGER

@<TRIPOS>ATOM
      1 S           2.9762    2.1300   -1.5364 S.O2    1  LIG1        0.1510
      2 N           5.0837   -0.0808    2.6027 N.pl3   1  LIG1        0.0565
      3 O           5.9208   -0.0623    3.4964 O.2     1  LIG1       -0.1261
      4 O           4.1886   -0.9109    2.5054 O.2     1  LIG1       -0.1261
      5 O           2.5373    0.8311   -1.8911 O.2     1  LIG1       -0.1314
      6 O           3.3394    3.0750   -2.5329 O.2     1  LIG1       -0.1314
      7 O           1.7611    2.6946   -0.6813 O.3     1  LIG1       -0.3423
      8 O           1.1550    7.7205    3.0787 O.2     1  LIG1       -0.2450
      9 O           1.1711    8.7370    1.0796 O.3     1  LIG1       -0.4645
     10 C           5.1609    0.9714    1.5737 C.ar    1  LIG1        0.1281
     11 C           6.2081    1.8669    1.6058 C.ar    1  LIG1       -0.0314
     12 H           6.8684    1.8148    2.2633 H       1  LIG1        0.0640
     13 C           6.2723    2.8456    0.6312 C.ar    1  LIG1       -0.0577
     14 H           6.9770    3.4908    0.6340 H       1  LIG1        0.0619
     15 C           5.2986    2.9324   -0.3486 C.ar    1  LIG1       -0.0333
     16 H           5.3333    3.5583   -0.9874 H       1  LIG1        0.0638
     17 C           4.2606    2.0128   -0.3428 C.ar    1  LIG1        0.1302
     18 C           4.1785    1.0137    0.6090 C.ar    1  LIG1       -0.0032
     19 H           3.4872    0.4031    0.5943 H       1  LIG1        0.0660
     20 C           1.8231    3.9920   -0.1028 C.ar    1  LIG1        0.1568
     21 C           2.0719    4.0736    1.2521 C.ar    1  LIG1       -0.0163
     22 H           2.3029    3.3075    1.7313 H       1  LIG1        0.0655
     23 C           1.9375    5.3019    1.8672 C.ar    1  LIG1       -0.0442
     24 H           2.0455    5.3548    2.8087 H       1  LIG1        0.0627
     25 C           1.5751    6.4219    1.1281 C.ar    1  LIG1        0.0592
     26 C           1.4002    6.3166   -0.2499 C.ar    1  LIG1       -0.0442
     27 H           1.1915    7.0712   -0.7544 H       1  LIG1        0.0627
     28 C           1.5135    5.0897   -0.8771 C.ar    1  LIG1       -0.0163
     29 H           1.3686    4.9960   -1.7776 H       1  LIG1        0.0655
     30 C           1.2944    7.6739    1.8823 C.2     1  LIG1        0.3389
     31 C           0.8018    9.9657    1.7481 C.3     1  LIG1        0.0820
     32 H           1.5002   10.2630    2.3613 H       1  LIG1        0.0661
     33 H           0.6906   10.6179    1.0615 H       1  LIG1        0.0661
     34 H          -0.0410    9.8474    2.1932 H       1  LIG1        0.0661
@<TRIPOS>BOND
     1     6     1    2
     2     5     1    2
     3    29    28    1
     4     1     7    1
     5     1    17    1
     6    16    15    1
     7    28    26   ar
     8    28    20   ar
     9    27    26    1
    10     7    20    1
    11    15    17   ar
    12    15    13   ar
    13    17    18   ar
    14    26    25   ar
    15    20    21   ar
    16    19    18    1
    17    18    10   ar
    18    13    14    1
    19    13    11   ar
    20    33    31    1
    21     9    31    1
    22     9    30    1
    23    25    23   ar
    24    25    30    1
    25    21    22    1
    26    21    23   ar
    27    10    11   ar
    28    10     2    1
    29    11    12    1
    30    31    34    1
    31    31    32    1
    32    23    24    1
    33    30     8    2
    34     4     2    2
    35     2     3    2
