@<TRIPOS>MOLECULE
?
 26 26 0 0 0
SMALL
GASTEIGER

@<TRIPOS>ATOM
      1 O          -0.2577    6.6153    4.3957 O.2     1  LIG1       -0.2450
      2 C           4.4345    8.4804    7.3640 C.3     1  LIG1       -0.0584
      3 H           4.4709    9.1435    6.6704 H       1  LIG1        0.0234
      4 H           5.3256    8.2768    7.6585 H       1  LIG1        0.0234
      5 H           3.9219    8.8162    8.1036 H       1  LIG1        0.0234
      6 C           3.7960    7.2528    6.8385 C.3     1  LIG1        0.0046
      7 H           3.6627    6.6304    7.5712 H       1  LIG1        0.0341
      8 H           4.3958    6.8355    6.2008 H       1  LIG1        0.0341
      9 C           2.4928    7.5025    6.1786 C.ar    1  LIG1        0.1336
     10 N           1.9568    8.6658    6.0404 N.ar    1  LIG1       -0.1565
     11 N           0.8170    8.4241    5.3164 N.ar    1  LIG1       -0.2266
     12 H           0.2655    9.0394    5.0783 H       1  LIG1        0.1937
     13 C           0.6553    7.1369    5.0231 C.ar    1  LIG1        0.3441
     14 N           1.7461    6.5351    5.5846 N.ar    1  LIG1       -0.2795
     15 C           1.9887    5.0928    5.5678 C.3     1  LIG1        0.0292
     16 H           2.9285    4.9331    5.3890 H       1  LIG1        0.0494
     17 H           1.4785    4.6958    4.8444 H       1  LIG1        0.0494
     18 C           1.6135    4.4124    6.8619 C.3     1  LIG1       -0.0348
     19 H           1.8200    3.4675    6.7874 H       1  LIG1        0.0282
     20 H           2.1615    4.7773    7.5747 H       1  LIG1        0.0282
     21 C           0.1656    4.5604    7.2428 C.3     1  LIG1       -0.0514
     22 H          -0.3871    4.2308    6.5168 H       1  LIG1        0.0266
     23 H          -0.0341    5.5022    7.3635 H       1  LIG1        0.0266
     24 C          -0.1884    3.8159    8.5093 C.3     1  LIG1       -0.0530
     25 H          -0.0328    2.8685    8.3690 H       1  LIG1        0.0265
     26 H           0.4011    4.1094    9.2209 H       1  LIG1        0.0265
@<TRIPOS>BOND
     1     1    13    2
     2    17    15    1
     3    13    11   ar
     4    13    14   ar
     5    12    11    1
     6    11    10   ar
     7    16    15    1
     8    15    14    1
     9    15    18    1
    10    14     9   ar
    11    10     9   ar
    12     9     6    1
    13     8     6    1
    14    22    21    1
    15     3     2    1
    16    19    18    1
    17     6     2    1
    18     6     7    1
    19    18    21    1
    20    18    20    1
    21    21    23    1
    22    21    24    1
    23     2     4    1
    24     2     5    1
    25    25    24    1
    26    24    26    1
