@<TRIPOS>MOLECULE
C11 H20 N2 O4 S
 38 37 0 0 0
SMALL
GASTEIGER

@<TRIPOS>ATOM
      1 S           3.7260    5.6553    4.0463 S.2     1  LIG1       -0.0179
      2 O           0.3487    2.6980    4.4307 O.3     1  LIG1       -0.4444
      3 O           1.7817    3.5883    2.9196 O.2     1  LIG1       -0.2260
      4 O           3.4679    5.2023    8.7600 O.3     1  LIG1       -0.4444
      5 O           1.9251    3.8359    7.8259 O.2     1  LIG1       -0.2260
      6 N           1.8807    4.0545    5.1781 N.am    1  LIG1       -0.2326
      7 N           3.3024    5.1824    6.5763 N.am    1  LIG1       -0.2326
      8 C          -0.9314    2.5047    2.3368 C.3     1  LIG1       -0.0253
      9 C           0.6361    0.6959    3.0889 C.3     1  LIG1       -0.0253
     10 C          -1.4326    1.2058    4.3800 C.3     1  LIG1       -0.0253
     11 C          -0.3374    1.7594    3.5047 C.3     1  LIG1        0.1068
     12 C           1.3691    3.4577    4.0160 C.2     1  LIG1        0.4063
     13 C           2.9327    4.9173    5.2737 C.2     1  LIG1        0.1479
     14 C           4.0504    5.8516   10.9125 C.3     1  LIG1       -0.0253
     15 C           3.4953    3.4592   10.4587 C.3     1  LIG1       -0.0253
     16 C           1.7104    5.2178   10.4369 C.3     1  LIG1       -0.0253
     17 C           3.1456    4.8947   10.1674 C.3     1  LIG1        0.1068
     18 C           2.8071    4.6512    7.7534 C.2     1  LIG1        0.4063
     19 H           1.4802    3.8517    5.9233 H       1  LIG1        0.1599
     20 H          -0.2419    2.9582    1.8658 H       1  LIG1        0.0268
     21 H          -1.3611    1.8902    1.7541 H       1  LIG1        0.0268
     22 H          -1.5662    3.1359    2.6536 H       1  LIG1        0.0268
     23 H           3.9382    5.7680    6.6719 H       1  LIG1        0.1599
     24 H           0.9405    0.2283    3.8583 H       1  LIG1        0.0268
     25 H           0.2084    0.0888    2.4969 H       1  LIG1        0.0268
     26 H           1.3762    1.0985    2.6501 H       1  LIG1        0.0268
     27 H          -1.9898    1.9159    4.6771 H       1  LIG1        0.0268
     28 H          -1.9501    0.5822    3.8836 H       1  LIG1        0.0268
     29 H          -1.0477    0.7704    5.1309 H       1  LIG1        0.0268
     30 H           3.9282    5.7389   11.8489 H       1  LIG1        0.0268
     31 H           4.9554    5.6714   10.6879 H       1  LIG1        0.0268
     32 H           3.8351    6.7445   10.6707 H       1  LIG1        0.0268
     33 H           3.2835    3.2589   11.3628 H       1  LIG1        0.0268
     34 H           2.9986    2.8893    9.8829 H       1  LIG1        0.0268
     35 H           4.4240    3.3243   10.3125 H       1  LIG1        0.0268
     36 H           1.5568    6.1400   10.2676 H       1  LIG1        0.0268
     37 H           1.1563    4.6961    9.8691 H       1  LIG1        0.0268
     38 H           1.5072    5.0245   11.3433 H       1  LIG1        0.0268
@<TRIPOS>BOND
     1    21     8    1
     2    20     8    1
     3     8    22    1
     4     8    11    1
     5    25     9    1
     6    26     9    1
     7     3    12    2
     8     9    11    1
     9     9    24    1
    10    11    10    1
    11    11     2    1
    12    28    10    1
    13    12     2    1
    14    12     6   am
    15     1    13    2
    16    10    27    1
    17    10    29    1
    18     6    13    1
    19     6    19    1
    20    13     7    1
    21     7    23    1
    22     7    18   am
    23    18     5    2
    24    18     4    1
    25     4    17    1
    26    37    16    1
    27    34    15    1
    28    17    16    1
    29    17    15    1
    30    17    14    1
    31    36    16    1
    32    35    15    1
    33    16    38    1
    34    15    33    1
    35    32    14    1
    36    31    14    1
    37    14    30    1
