@<TRIPOS>MOLECULE
tert-butoxycarbonyl-L-alanyl-L-lactic acid benzyl ester
 50 50 0 0 0
SMALL
GASTEIGER

@<TRIPOS>ATOM
      1 O           6.6001   -0.8218   -3.2952 O.3     1  LIG1       -0.4447
      2 O           8.3078    0.6814   -2.9476 O.2     1  LIG1       -0.2264
      3 O           7.1998    1.4203    0.3061 O.2     1  LIG1       -0.2487
      4 O           8.2357    3.2722   -0.4379 O.3     1  LIG1       -0.4489
      5 O           6.8030    4.4726    1.4871 O.2     1  LIG1       -0.2466
      6 O           8.2311    3.7885    3.0698 O.3     1  LIG1       -0.4573
      7 N           6.1600    1.1396   -2.3598 N.am    1  LIG1       -0.2682
      8 C           7.4865   -1.9411   -3.6768 C.3     1  LIG1        0.1068
      9 C           8.2497   -2.3745   -2.4459 C.3     1  LIG1       -0.0253
     10 C           8.3887   -1.5889   -4.7982 C.3     1  LIG1       -0.0253
     11 C           6.5045   -2.9924   -4.0680 C.3     1  LIG1       -0.0253
     12 C           7.1301    0.3451   -2.8689 C.2     1  LIG1        0.4014
     13 C           6.5184    2.4098   -1.7953 C.3     1  LIG1        0.1205
     14 C           7.3345    2.2747   -0.5410 C.2     1  LIG1        0.3282
     15 C           5.2291    3.1839   -1.4382 C.3     1  LIG1       -0.0361
     16 C           8.8695    3.4425    0.8312 C.3     1  LIG1        0.1962
     17 C           7.8362    3.9527    1.8145 C.2     1  LIG1        0.3484
     18 C           9.9725    4.4771    0.6558 C.3     1  LIG1       -0.0170
     19 C           7.3282    4.3685    4.0733 C.3     1  LIG1        0.1176
     20 C           7.9335    4.1328    5.4222 C.ar    1  LIG1       -0.0103
     21 C           7.3099    3.3295    6.3576 C.ar    1  LIG1       -0.0554
     22 C           7.8513    3.1592    7.6119 C.ar    1  LIG1       -0.0614
     23 C           9.0429    3.7885    7.9478 C.ar    1  LIG1       -0.0617
     24 C           9.6457    4.6156    7.0357 C.ar    1  LIG1       -0.0614
     25 C           9.1036    4.7860    5.7804 C.ar    1  LIG1       -0.0554
     26 H           7.6286   -2.6402   -1.7762 H       1  LIG1        0.0268
     27 H           8.8143   -3.1124   -2.6585 H       1  LIG1        0.0268
     28 H           8.7774   -1.6568   -2.1238 H       1  LIG1        0.0268
     29 H           8.9343   -2.3374   -5.0172 H       1  LIG1        0.0268
     30 H           7.8898   -1.3285   -5.5625 H       1  LIG1        0.0268
     31 H           8.9370   -0.8695   -4.5144 H       1  LIG1        0.0268
     32 H           5.9704   -3.1830   -3.3047 H       1  LIG1        0.0268
     33 H           5.9491   -2.6905   -4.7759 H       1  LIG1        0.0268
     34 H           6.9582   -3.7850   -4.3390 H       1  LIG1        0.0268
     35 H           5.2530    0.8589   -2.3715 H       1  LIG1        0.1528
     36 H           7.0092    2.9023   -2.4427 H       1  LIG1        0.0612
     37 H           5.4508    4.0401   -1.0917 H       1  LIG1        0.0253
     38 H           4.7011    3.2872   -2.2216 H       1  LIG1        0.0253
     39 H           4.7395    2.6966   -0.7877 H       1  LIG1        0.0253
     40 H           9.2466    2.6251    1.1352 H       1  LIG1        0.0850
     41 H          10.4185    4.6412    1.4786 H       1  LIG1        0.0271
     42 H          10.6008    4.1787    0.0096 H       1  LIG1        0.0271
     43 H           9.5609    5.2777    0.3529 H       1  LIG1        0.0271
     44 H           7.2204    5.2988    3.9138 H       1  LIG1        0.0749
     45 H           6.4827    3.9377    4.0180 H       1  LIG1        0.0749
     46 H           6.4892    2.9076    6.1354 H       1  LIG1        0.0621
     47 H           7.4294    2.5810    8.2380 H       1  LIG1        0.0618
     48 H           9.4101    3.6853    8.8173 H       1  LIG1        0.0618
     49 H          10.4529    5.0561    7.2738 H       1  LIG1        0.0618
     50 H           9.5570    5.3315    5.1490 H       1  LIG1        0.0621
@<TRIPOS>BOND
     1    30    10    1
     2    29    10    1
     3    10    31    1
     4    10     8    1
     5    33    11    1
     6    34    11    1
     7    11     8    1
     8    11    32    1
     9     8     1    1
    10     8     9    1
    11     1    12    1
    12     2    12    2
    13    12     7   am
    14    27     9    1
    15     9    28    1
    16     9    26    1
    17    36    13    1
    18    35     7    1
    19     7    13    1
    20    38    15    1
    21    13    15    1
    22    13    14    1
    23    15    37    1
    24    15    39    1
    25    14     4    1
    26    14     3    2
    27     4    16    1
    28    42    18    1
    29    43    18    1
    30    18    16    1
    31    18    41    1
    32    16    40    1
    33    16    17    1
    34     5    17    2
    35    17     6    1
    36     6    19    1
    37    44    19    1
    38    45    19    1
    39    19    20    1
    40    50    25    1
    41    20    25   ar
    42    20    21   ar
    43    25    24   ar
    44    46    21    1
    45    21    22   ar
    46    24    49    1
    47    24    23   ar
    48    22    23   ar
    49    22    47    1
    50    23    48    1
