@<TRIPOS>MOLECULE
2-(3-Carboxymethyl-4-nitrophenyl)propionic acid
 29 29 0 0 0
SMALL
GASTEIGER

@<TRIPOS>ATOM
      1 O           3.1243    3.1713    1.3838 O.3     1  LIG1       -0.4802
      2 O           2.2351    5.0917    0.7985 O.2     1  LIG1       -0.2503
      3 O           0.9421    6.4106    9.3785 O.3     1  LIG1       -0.4804
      4 O          -0.4383    5.9677    7.6974 O.2     1  LIG1       -0.2507
      5 O           0.9172    8.7253    7.1527 O.2     1  LIG1       -0.1261
      6 O           1.1343    9.8375    5.3396 O.2     1  LIG1       -0.1261
      7 N           1.0697    8.7819    5.9507 N.pl3   1  LIG1        0.0567
      8 C           2.3163    4.1225    1.5602 C.2     1  LIG1        0.3119
      9 C           1.4162    3.9919    2.7714 C.3     1  LIG1        0.0784
     10 C           0.1019    3.4957    2.3569 C.3     1  LIG1       -0.0482
     11 C           1.3356    5.2664    3.6013 C.ar    1  LIG1       -0.0335
     12 C           1.6463    5.2288    4.9510 C.ar    1  LIG1       -0.0519
     13 C           1.5651    6.3428    5.7818 C.ar    1  LIG1       -0.0063
     14 C           1.1773    7.5315    5.1771 C.ar    1  LIG1        0.1299
     15 C           0.8594    7.6063    3.8422 C.ar    1  LIG1       -0.0309
     16 C           0.9242    6.4830    3.0585 C.ar    1  LIG1       -0.0556
     17 C           1.9054    6.1929    7.2450 C.3     1  LIG1        0.0720
     18 C           0.6833    6.1820    8.1211 C.2     1  LIG1        0.3091
     19 H           3.5241    3.2801    0.6767 H       1  LIG1        0.2951
     20 H           0.2394    6.4483    9.7994 H       1  LIG1        0.2951
     21 H           1.8116    3.3037    3.3456 H       1  LIG1        0.0459
     22 H          -0.4407    3.3395    3.1332 H       1  LIG1        0.0241
     23 H           0.2090    2.6746    1.8713 H       1  LIG1        0.0241
     24 H          -0.3240    4.1468    1.7946 H       1  LIG1        0.0241
     25 H           1.9225    4.4204    5.3193 H       1  LIG1        0.0624
     26 H           0.6002    8.4182    3.4702 H       1  LIG1        0.0640
     27 H           0.6926    6.5330    2.1593 H       1  LIG1        0.0621
     28 H           2.3961    5.3656    7.3743 H       1  LIG1        0.0427
     29 H           2.4817    6.9247    7.5137 H       1  LIG1        0.0427
@<TRIPOS>BOND
     1    19     1    1
     2     2     8    2
     3     1     8    1
     4     8     9    1
     5    24    10    1
     6    23    10    1
     7    27    16    1
     8    10     9    1
     9    10    22    1
    10     9    21    1
    11     9    11    1
    12    16    11   ar
    13    16    15   ar
    14    26    15    1
    15    11    12   ar
    16    15    14   ar
    17    12    25    1
    18    12    13   ar
    19    14    13   ar
    20    14     7    1
    21     6     7    2
    22    13    17    1
    23     7     5    2
    24    17    28    1
    25    17    29    1
    26    17    18    1
    27     4    18    2
    28    18     3    1
    29     3    20    1
