@<TRIPOS>MOLECULE
2,4,6-Triisopropylphenyl isopropyl sulfone
 51 51 0 0 0
SMALL
GASTEIGER

@<TRIPOS>ATOM
      1 S           4.6734    2.1788   12.8145 S.O2    1  LIG1       -0.0003
      2 O           5.2183    3.0935   13.7734 O.2     1  LIG1       -0.1691
      3 O           3.3564    2.4851   12.3403 O.2     1  LIG1       -0.1691
      4 C           5.7663    2.0464   11.3907 C.ar    1  LIG1        0.0953
      5 C           7.0759    2.5821   11.4172 C.ar    1  LIG1       -0.0195
      6 C           7.7686    2.6181   10.2102 C.ar    1  LIG1       -0.0531
      7 C           7.2614    2.1308    9.0171 C.ar    1  LIG1       -0.0442
      8 C           6.0277    1.5313    9.0628 C.ar    1  LIG1       -0.0531
      9 C           5.2520    1.4642   10.2053 C.ar    1  LIG1       -0.0195
     10 C           7.8137    3.1229   12.6316 C.3     1  LIG1       -0.0197
     11 C           8.0529    2.2497    7.7275 C.3     1  LIG1       -0.0215
     12 C           3.9302    0.7109   10.0705 C.3     1  LIG1       -0.0197
     13 C           4.6409    0.5490   13.5686 C.3     1  LIG1        0.0764
     14 C           3.6742    0.5903   14.7426 C.3     1  LIG1       -0.0427
     15 C           6.0116    0.0858   13.9567 C.3     1  LIG1       -0.0427
     16 C           9.2078    2.5176   12.7655 C.3     1  LIG1       -0.0586
     17 C           7.9044    4.6467   12.5690 C.3     1  LIG1       -0.0586
     18 C           9.1965    1.3603    7.6820 C.3     1  LIG1       -0.0586
     19 C           8.3387    3.6633    7.3718 C.3     1  LIG1       -0.0586
     20 C           3.0103    1.3614    9.0436 C.3     1  LIG1       -0.0586
     21 C           4.1833   -0.7456    9.7134 C.3     1  LIG1       -0.0586
     22 H           8.6199    2.9907   10.2042 H       1  LIG1        0.0624
     23 H           5.6954    1.1492    8.2823 H       1  LIG1        0.0624
     24 H           7.3009    2.8817   13.4310 H       1  LIG1        0.0344
     25 H           7.4494    1.9262    7.0259 H       1  LIG1        0.0343
     26 H           3.4784    0.7352   10.9405 H       1  LIG1        0.0344
     27 H           4.2855   -0.0812   12.9072 H       1  LIG1        0.0534
     28 H           3.6077   -0.2841   15.1329 H       1  LIG1        0.0248
     29 H           2.8093    0.8686   14.4357 H       1  LIG1        0.0248
     30 H           3.9955    1.2107   15.3995 H       1  LIG1        0.0248
     31 H           6.3470    0.6390   14.6650 H       1  LIG1        0.0248
     32 H           6.5969    0.1473   13.1980 H       1  LIG1        0.0248
     33 H           5.9697   -0.8257   14.2549 H       1  LIG1        0.0248
     34 H           9.1458    1.5597   12.7338 H       1  LIG1        0.0235
     35 H           9.5931    2.7855   13.6025 H       1  LIG1        0.0235
     36 H           9.7608    2.8260   12.0441 H       1  LIG1        0.0235
     37 H           8.4051    4.9053   11.7924 H       1  LIG1        0.0235
     38 H           8.3439    4.9737   13.3564 H       1  LIG1        0.0235
     39 H           7.0214    5.0178   12.5176 H       1  LIG1        0.0235
     40 H           9.7468    1.5864    6.9271 H       1  LIG1        0.0235
     41 H           8.8942    0.4534    7.5963 H       1  LIG1        0.0235
     42 H           9.7066    1.4519    8.4892 H       1  LIG1        0.0235
     43 H           8.8855    4.0611    8.0530 H       1  LIG1        0.0235
     44 H           7.5123    4.1480    7.3018 H       1  LIG1        0.0235
     45 H           8.8016    3.6946    6.5319 H       1  LIG1        0.0235
     46 H           3.4190    1.3185    8.1760 H       1  LIG1        0.0235
     47 H           2.8617    2.2787    9.2833 H       1  LIG1        0.0235
     48 H           2.1716    0.8952    9.0261 H       1  LIG1        0.0235
     49 H           3.3526   -1.2269    9.7214 H       1  LIG1        0.0235
     50 H           4.7834   -1.1330   10.3552 H       1  LIG1        0.0235
     51 H           4.5738   -0.7978    8.8378 H       1  LIG1        0.0235
@<TRIPOS>BOND
     1    45    19    1
     2    40    18    1
     3    25    11    1
     4    44    19    1
     5    19    11    1
     6    19    43    1
     7    41    18    1
     8    18    11    1
     9    18    42    1
    10    11     7    1
    11    46    20    1
    12    23     8    1
    13    51    21    1
    14     7     8   ar
    15     7     6   ar
    16    48    20    1
    17    20    47    1
    18    20    12    1
    19     8     9   ar
    20    21    49    1
    21    21    12    1
    22    21    50    1
    23    12     9    1
    24    12    26    1
    25    22     6    1
    26     9     4   ar
    27     6     5   ar
    28     4     5   ar
    29     4     1    1
    30     5    10    1
    31    37    17    1
    32    36    16    1
    33     3     1    2
    34    39    17    1
    35    17    10    1
    36    17    38    1
    37    10    16    1
    38    10    24    1
    39    34    16    1
    40    16    35    1
    41     1    13    1
    42     1     2    2
    43    27    13    1
    44    32    15    1
    45    13    15    1
    46    13    14    1
    47    15    33    1
    48    15    31    1
    49    29    14    1
    50    14    28    1
    51    14    30    1
