@<TRIPOS>MOLECULE
?
 60 62 0 0 0
SMALL
GASTEIGER

@<TRIPOS>ATOM
      1 C           2.6245    4.7222    2.0030 C.ar    1  LIG1        0.0728
      2 C           1.6239    4.1625    1.1958 C.ar    1  LIG1        0.0728
      3 C           0.8785    3.0926    1.6586 C.ar    1  LIG1        0.0030
      4 H           0.2332    2.7043    1.1128 H       1  LIG1        0.0669
      5 C           1.0940    2.6018    2.9309 C.ar    1  LIG1        0.1717
      6 C           2.0514    3.1902    3.7476 C.ar    1  LIG1        0.1717
      7 C           2.8232    4.2250    3.2809 C.ar    1  LIG1        0.0030
      8 H           3.4814    4.5932    3.8244 H       1  LIG1        0.0669
      9 N           4.0814    6.6539    1.1399 N.1     1  LIG1       -0.1908
     10 C           3.4318    5.8035    1.5222 C.1     1  LIG1        0.1006
     11 N           1.1275    5.1708   -1.1137 N.1     1  LIG1       -0.1908
     12 O           0.4453    1.5418    3.4782 O.3     1  LIG1       -0.4520
     13 O           2.2813    2.6711    4.9985 O.3     1  LIG1       -0.4520
     14 C           1.3553    4.7143   -0.0982 C.1     1  LIG1        0.1006
     15 C          -0.5990    0.9031    2.7872 C.ar    1  LIG1        0.1323
     16 C          -1.7718    1.5854    2.5699 C.ar    1  LIG1       -0.0161
     17 H          -1.8294    2.4846    2.7987 H       1  LIG1        0.0657
     18 C          -2.8684    0.9473    2.0134 C.ar    1  LIG1       -0.0470
     19 C          -2.7262   -0.3824    1.6962 C.ar    1  LIG1       -0.0583
     20 H          -3.4469   -0.8398    1.3257 H       1  LIG1        0.0620
     21 C          -1.5495   -1.0518    1.9136 C.ar    1  LIG1       -0.0546
     22 H          -1.4916   -1.9494    1.6782 H       1  LIG1        0.0622
     23 C          -0.4352   -0.4299    2.4758 C.ar    1  LIG1       -0.0025
     24 C           0.8696   -1.1495    2.7087 C.3     1  LIG1       -0.0180
     25 H           1.3242   -0.6842    3.4423 H       1  LIG1        0.0345
     26 C           0.7068   -2.5815    3.1359 C.3     1  LIG1       -0.0585
     27 H           1.5723   -2.9770    3.2654 H       1  LIG1        0.0235
     28 H           0.2315   -3.0663    2.4577 H       1  LIG1        0.0235
     29 H           0.2134   -2.6158    3.9590 H       1  LIG1        0.0235
     30 C           1.7614   -1.0306    1.4949 C.3     1  LIG1       -0.0585
     31 H           2.5872   -1.4917    1.6577 H       1  LIG1        0.0235
     32 H           1.9413   -0.1036    1.3205 H       1  LIG1        0.0235
     33 H           1.3216   -1.4204    0.7359 H       1  LIG1        0.0235
     34 C          -4.1589    1.6822    1.8141 C.3     1  LIG1       -0.0396
     35 H          -4.6389    1.2923    1.0795 H       1  LIG1        0.0278
     36 H          -3.9749    2.6048    1.6218 H       1  LIG1        0.0278
     37 H          -4.6891    1.6208    2.6116 H       1  LIG1        0.0278
     38 C           1.4010    3.0652    6.0134 C.ar    1  LIG1        0.1323
     39 C           0.8668    4.3304    6.0352 C.ar    1  LIG1       -0.0161
     40 H           1.0678    4.9225    5.3475 H       1  LIG1        0.0657
     41 C           0.0358    4.7395    7.0620 C.ar    1  LIG1       -0.0470
     42 C          -0.2313    3.8308    8.0706 C.ar    1  LIG1       -0.0583
     43 H          -0.7856    4.0748    8.7757 H       1  LIG1        0.0620
     44 C           0.3121    2.5766    8.0393 C.ar    1  LIG1       -0.0546
     45 H           0.1207    1.9903    8.7347 H       1  LIG1        0.0622
     46 C           1.1383    2.1425    7.0119 C.ar    1  LIG1       -0.0025
     47 C           1.6921    0.7484    6.9656 C.3     1  LIG1       -0.0180
     48 H           2.2418    0.6717    6.1578 H       1  LIG1        0.0345
     49 C           0.5736   -0.2636    6.8603 C.3     1  LIG1       -0.0585
     50 H           0.9442   -1.1488    6.8347 H       1  LIG1        0.0235
     51 H           0.0724   -0.1028    6.0578 H       1  LIG1        0.0235
     52 H          -0.0052   -0.1803    7.6219 H       1  LIG1        0.0235
     53 C           2.5682    0.4363    8.1462 C.3     1  LIG1       -0.0585
     54 H           2.8909   -0.4651    8.0770 H       1  LIG1        0.0235
     55 H           2.0601    0.5326    8.9552 H       1  LIG1        0.0235
     56 H           3.3125    1.0434    8.1616 H       1  LIG1        0.0235
     57 C          -0.5286    6.1307    7.0816 C.3     1  LIG1       -0.0396
     58 H          -0.0522    6.6600    7.7257 H       1  LIG1        0.0278
     59 H          -1.4576    6.0964    7.3206 H       1  LIG1        0.0278
     60 H          -0.4361    6.5260    6.2116 H       1  LIG1        0.0278
@<TRIPOS>BOND
     1    11    14    3
     2    14     2    1
     3    33    30    1
     4    35    34    1
     5     4     3    1
     6     9    10    3
     7     2     3   ar
     8     2     1   ar
     9    32    30    1
    10    20    19    1
    11    30    31    1
    12    30    24    1
    13    10     1    1
    14    36    34    1
    15     3     5   ar
    16    22    21    1
    17    19    21   ar
    18    19    18   ar
    19    34    18    1
    20    34    37    1
    21    21    23   ar
    22     1     7   ar
    23    18    16   ar
    24    28    26    1
    25    23    24    1
    26    23    15   ar
    27    16    15   ar
    28    16    17    1
    29    24    26    1
    30    24    25    1
    31    15    12    1
    32     5    12    1
    33     5     6   ar
    34    26    27    1
    35    26    29    1
    36     7     6   ar
    37     7     8    1
    38     6    13    1
    39    13    38    1
    40    40    39    1
    41    38    39   ar
    42    38    46   ar
    43    39    41   ar
    44    51    49    1
    45    48    47    1
    46    60    57    1
    47    50    49    1
    48    49    47    1
    49    49    52    1
    50    47    46    1
    51    47    53    1
    52    46    44   ar
    53    41    57    1
    54    41    42   ar
    55    57    59    1
    56    57    58    1
    57    44    42   ar
    58    44    45    1
    59    42    43    1
    60    54    53    1
    61    53    56    1
    62    53    55    1
