@<TRIPOS>MOLECULE
N-isopropyl-D-glycero-D-gulo-heptonamide
 39 38 0 0 0
SMALL
GASTEIGER

@<TRIPOS>ATOM
      1 C           0.9237    8.4391    0.9114 C.2     1  LIG1        0.2445
      2 C           0.0219    9.0826   -0.1299 C.3     1  LIG1        0.1590
      3 C           0.8554    9.9335   -1.0871 C.3     1  LIG1        0.1178
      4 C           1.5664   11.1397   -0.4663 C.3     1  LIG1        0.1122
      5 C           0.6771   12.1147    0.2754 C.3     1  LIG1        0.1115
      6 C           1.5061   13.1770    0.9996 C.3     1  LIG1        0.1065
      7 C           0.6595   14.1827    1.7460 C.3     1  LIG1        0.0727
      8 C           1.8988    6.3188    1.7128 C.3     1  LIG1        0.0176
      9 C           2.4180    5.1466    0.9180 C.3     1  LIG1       -0.0469
     10 H           3.0610    4.6642    1.4423 H       1  LIG1        0.0247
     11 H           2.8351    5.4674    0.1141 H       1  LIG1        0.0247
     12 H           1.6888    4.5655    0.6909 H       1  LIG1        0.0247
     13 C           1.1738    5.8950    2.9673 C.3     1  LIG1       -0.0469
     14 H           0.7894    6.6654    3.3906 H       1  LIG1        0.0247
     15 H           1.7936    5.4764    3.5688 H       1  LIG1        0.0247
     16 H           0.4777    5.2745    2.7408 H       1  LIG1        0.0247
     17 N           1.0280    7.1162    0.8528 N.am    1  LIG1       -0.3108
     18 O           1.5280    9.1398    1.7171 O.2     1  LIG1       -0.2729
     19 O          -0.6715    8.0719   -0.8377 O.3     1  LIG1       -0.3799
     20 O           1.8324    9.0927   -1.6699 O.3     1  LIG1       -0.3861
     21 O           2.2066   11.8304   -1.5383 O.3     1  LIG1       -0.3865
     22 O          -0.2479   12.7617   -0.6112 O.3     1  LIG1       -0.3865
     23 O           2.4415   12.5457    1.8729 O.3     1  LIG1       -0.3869
     24 O          -0.0752   13.5961    2.7945 O.3     1  LIG1       -0.3924
     25 H          -0.6258    9.6470    0.2506 H       1  LIG1        0.0717
     26 H           0.2652   10.2348   -1.7177 H       1  LIG1        0.0651
     27 H           2.2379   10.8675    0.0785 H       1  LIG1        0.0647
     28 H           0.1496   11.6393    0.9011 H       1  LIG1        0.0647
     29 H           2.0449   13.6158    0.2718 H       1  LIG1        0.0643
     30 H          -0.0583   14.6119    1.1222 H       1  LIG1        0.0584
     31 H           1.2330   14.7488    2.1006 H       1  LIG1        0.0584
     32 H           2.6255    6.8741    1.9085 H       1  LIG1        0.0493
     33 H           0.6689    6.7709    0.2694 H       1  LIG1        0.1490
     34 H          -1.3965    8.3750   -1.0110 H       1  LIG1        0.2105
     35 H           1.8007    9.2141   -2.3748 H       1  LIG1        0.2100
     36 H           2.9510   12.0633   -1.2822 H       1  LIG1        0.2100
     37 H           0.0985   12.9383   -1.2750 H       1  LIG1        0.2100
     38 H           2.0683   12.2540    2.4515 H       1  LIG1        0.2100
     39 H          -0.8326   13.3937    2.5620 H       1  LIG1        0.2095
@<TRIPOS>BOND
     1    35    20    1
     2    26     3    1
     3    20     3    1
     4    21    36    1
     5    21     4    1
     6    37    22    1
     7     3     4    1
     8     3     2    1
     9    34    19    1
    10    19     2    1
    11    22     5    1
    12     4    27    1
    13     4     5    1
    14     2    25    1
    15     2     1    1
    16    11     9    1
    17    33    17    1
    18    29     6    1
    19     5    28    1
    20     5     6    1
    21    12     9    1
    22    17     1   am
    23    17     8    1
    24     1    18    2
    25     9    10    1
    26     9     8    1
    27     6     7    1
    28     6    23    1
    29    30     7    1
    30     8    32    1
    31     8    13    1
    32     7    31    1
    33     7    24    1
    34    23    38    1
    35    39    24    1
    36    16    13    1
    37    13    14    1
    38    13    15    1
