@<TRIPOS>MOLECULE
C22 H24 P +, Br -
 48 49 0 0 0
SMALL
GASTEIGER

@<TRIPOS>ATOM
      1 C           1.1138    0.2265    8.5872 C.3     1  LIG1        0.0773
      2 H           1.4999   -0.2686    7.8224 H       1  LIG1        0.0716
      3 H           1.8673    0.5343    9.1502 H       1  LIG1        0.0716
      4 C           0.2680   -0.7588    9.4161 C.3     1  LIG1       -0.0116
      5 H          -0.6998   -0.5755    9.2402 H       1  LIG1        0.0331
      6 C           0.5323   -0.5823   10.9081 C.3     1  LIG1       -0.0593
      7 H           0.3343    0.3412   11.1674 H       1  LIG1        0.0233
      8 H           1.4728   -0.7813   11.0995 H       1  LIG1        0.0233
      9 H          -0.0405   -1.1950   11.4153 H       1  LIG1        0.0233
     10 C           0.5753   -2.2067    8.9942 C.3     1  LIG1       -0.0593
     11 H           0.3976   -2.3126    8.0364 H       1  LIG1        0.0233
     12 H           0.0069   -2.8234    9.5017 H       1  LIG1        0.0233
     13 H           1.5175   -2.4077    9.1757 H       1  LIG1        0.0233
     14 C           1.4553    2.8037    7.1961 C.ar    1  LIG1        0.1062
     15 C           2.2719    2.3087    6.1753 C.ar    1  LIG1       -0.0188
     16 H           2.2326    1.3911    5.9326 H       1  LIG1        0.0657
     17 C           3.1434    3.1714    5.5161 C.ar    1  LIG1       -0.0580
     18 H           3.7116    2.8410    4.8290 H       1  LIG1        0.0619
     19 C           3.1829    4.5134    5.8611 C.ar    1  LIG1       -0.0615
     20 H           3.7641    5.1026    5.3944 H       1  LIG1        0.0618
     21 C           2.3864    5.0026    6.8792 C.ar    1  LIG1       -0.0580
     22 H           2.4362    5.9192    7.1246 H       1  LIG1        0.0619
     23 C           1.5140    4.1576    7.5412 C.ar    1  LIG1       -0.0188
     24 H           0.9556    4.4958    8.2299 H       1  LIG1        0.0657
     25 C          -0.8770    1.2303    6.6345 C.ar    1  LIG1        0.1062
     26 C          -1.1866   -0.0951    6.3483 C.ar    1  LIG1       -0.0188
     27 H          -0.8052   -0.7960    6.8631 H       1  LIG1        0.0657
     28 C          -2.0579   -0.3882    5.3032 C.ar    1  LIG1       -0.0580
     29 H          -2.2820   -1.2911    5.1108 H       1  LIG1        0.0619
     30 C          -2.5949    0.6294    4.5486 C.ar    1  LIG1       -0.0615
     31 H          -3.1840    0.4225    3.8323 H       1  LIG1        0.0618
     32 C          -2.2864    1.9558    4.8232 C.ar    1  LIG1       -0.0580
     33 H          -2.6644    2.6538    4.3009 H       1  LIG1        0.0619
     34 C          -1.4286    2.2489    5.8606 C.ar    1  LIG1       -0.0188
     35 H          -1.2104    3.1537    6.0498 H       1  LIG1        0.0657
     36 C          -0.6004    2.5704    9.2377 C.ar    1  LIG1        0.1062
     37 C           0.1513    3.0126   10.3386 C.ar    1  LIG1       -0.0188
     38 H           1.0656    2.7685   10.4271 H       1  LIG1        0.0657
     39 C          -0.4589    3.8096   11.2939 C.ar    1  LIG1       -0.0580
     40 H           0.0501    4.1331   12.0282 H       1  LIG1        0.0619
     41 C          -1.7940    4.1390   11.1956 C.ar    1  LIG1       -0.0615
     42 H          -2.1987    4.6840   11.8584 H       1  LIG1        0.0618
     43 C          -2.5430    3.6733   10.1274 C.ar    1  LIG1       -0.0580
     44 H          -3.4673    3.8841   10.0688 H       1  LIG1        0.0619
     45 C          -1.9422    2.8959    9.1388 C.ar    1  LIG1       -0.0188
     46 H          -2.4527    2.5900    8.3980 H       1  LIG1        0.0657
     47 BR          3.6871    1.4460   11.4015 Br      2  LIG2        0.0000
     48 P           0.2716    1.6720    7.9467 P.3     1  LIG1        0.1129
@<TRIPOS>BOND
     1    31    30    1
     2    33    32    1
     3    30    32   ar
     4    30    28   ar
     5    32    34   ar
     6    18    17    1
     7    29    28    1
     8    28    26   ar
     9    20    19    1
    10    17    19   ar
    11    17    15   ar
    12    34    35    1
    13    34    25   ar
    14    19    21   ar
    15    16    15    1
    16    15    14   ar
    17    26    25   ar
    18    26    27    1
    19    25    48    1
    20    21    22    1
    21    21    23   ar
    22    14    23   ar
    23    14    48    1
    24    23    24    1
    25     2     1    1
    26    48     1    1
    27    48    36    1
    28    11    10    1
    29    46    45    1
    30     1     3    1
    31     1     4    1
    32    10    13    1
    33    10     4    1
    34    10    12    1
    35    45    36   ar
    36    45    43   ar
    37    36    37   ar
    38     5     4    1
    39     4     6    1
    40    44    43    1
    41    43    41   ar
    42    37    38    1
    43    37    39   ar
    44     6     8    1
    45     6     7    1
    46     6     9    1
    47    41    39   ar
    48    41    42    1
    49    39    40    1
