@<TRIPOS>MOLECULE
Melaminium(2+) di(hydrogen oxalate)
 17 15 0 0 0
SMALL
GASTEIGER

@<TRIPOS>ATOM
      1 O           7.1243    2.7846    3.2582 O.co2   1  LIG1       -0.2332
      2 O           5.9430    4.6598    2.9706 O.co2   1  LIG1       -0.2332
      3 O           5.5337    1.5836    1.4593 O.3     1  LIG1       -0.4725
      4 O           3.9372    3.0585    1.9787 O.2     1  LIG1       -0.2376
      5 N           8.7947    4.2570    4.8687 N.2     2  LIG2       -0.2658
      6 N           7.9462    6.2510    4.0884 N.pl3   2  LIG2       -0.2211
      7 N           7.0964    8.2552    3.3497 N.pl3   2  LIG2       -0.2859
      8 N           8.7947    8.3134    4.8687 N.pl3   2  LIG2        0.1248
      9 C           8.7947    5.5507    4.8687 C.2     2  LIG2        0.2443
     10 C           7.9530    7.6248    4.1092 C.cat   2  LIG2        0.4279
     11 C           6.1557    3.4294    2.8213 C.2     1  LIG1        0.4619
     12 C           5.0841    2.6675    2.0293 C.2     1  LIG1        0.4191
     13 H           4.8739    1.1883    1.0646 H       1  LIG1        0.2956
     14 H           8.2341    3.8600    4.3624 H       2  LIG2        0.1898
     15 H           7.3570    5.7985    3.6808 H       2  LIG2        0.2666
     16 H           7.0692    9.1022    3.3562 H       2  LIG2        0.2548
     17 H           6.5546    7.8380    2.8369 H       2  LIG2        0.2548
@<TRIPOS>BOND
     1    13     3    1
     2     3    12    1
     3     4    12    2
     4    12    11    1
     5    11     2   ar
     6    11     1   ar
     7    17     7    1
     8     7    16    1
     9     7    10    1
    10    15     6    1
    11     6    10    1
    12     6     9    1
    13    10     8    2
    14    14     5    1
    15     9     5    2
