@<TRIPOS>MOLECULE
2,4,8-trinitro-2,4,6,8-tetraazabicyclo[3.3.0]octan-7-one
 23 24 0 0 0
SMALL
GASTEIGER

@<TRIPOS>ATOM
      1 C           2.2828    1.9906    3.1568 C.3     1  LIG1        0.1515
      2 H           1.5939    1.3222    3.4368 H       1  LIG1        0.0762
      3 N           2.0211    2.5437    1.8317 N.pl3   1  LIG1       -0.1633
      4 N           1.9390    1.7381    0.7692 N.pl3   1  LIG1        0.1242
      5 O           1.6660    2.2582   -0.3078 O.2     1  LIG1       -0.1096
      6 O           2.1642    0.5418    0.9617 O.2     1  LIG1       -0.1096
      7 C           1.7317    3.9690    1.7443 C.3     1  LIG1        0.1235
      8 H           0.8684    4.1401    1.2921 H       1  LIG1        0.0705
      9 H           2.4523    4.4606    1.2763 H       1  LIG1        0.0705
     10 N           1.6751    4.3158    3.1712 N.pl3   1  LIG1       -0.1612
     11 N           0.4838    4.8945    3.6208 N.pl3   1  LIG1        0.1242
     12 O          -0.1062    5.5856    2.7948 O.2     1  LIG1       -0.1096
     13 O           0.1631    4.7360    4.7765 O.2     1  LIG1       -0.1096
     14 C           2.2438    3.2749    4.0126 C.3     1  LIG1        0.1771
     15 H           1.7370    3.1519    4.8657 H       1  LIG1        0.0783
     16 N           3.6688    3.4941    4.2348 N.am    1  LIG1       -0.1009
     17 N           4.0708    4.4946    5.1152 N.pl3   1  LIG1        0.1307
     18 O           5.2515    4.5608    5.3965 O.2     1  LIG1       -0.1092
     19 O           3.1762    5.2236    5.4980 O.2     1  LIG1       -0.1092
     20 C           4.4862    2.4014    3.8126 C.2     1  LIG1        0.3285
     21 O           5.6864    2.3311    3.8871 O.2     1  LIG1       -0.2506
     22 N           3.6207    1.4971    3.3077 N.am    1  LIG1       -0.2748
     23 H           3.8906    0.8267    2.8261 H       1  LIG1        0.1523
@<TRIPOS>BOND
     1     5     4    2
     2     4     6    2
     3     4     3    1
     4     9     7    1
     5     8     7    1
     6     7     3    1
     7     7    10    1
     8     3     1    1
     9    12    11    2
    10    23    22    1
    11     1    22    1
    12     1     2    1
    13     1    14    1
    14    10    11    1
    15    10    14    1
    16    22    20   am
    17    11    13    2
    18    20    21    2
    19    20    16   am
    20    14    16    1
    21    14    15    1
    22    16    17    1
    23    17    18    2
    24    17    19    2
