@<TRIPOS>MOLECULE
2-[Dichloro(phenoxy)methyl]phenyl dichlorophosphonate
 60 62 0 0 0
SMALL
GASTEIGER

@<TRIPOS>ATOM
      1 CL         10.5070    3.8698   13.2929 Cl      1  LIG1        0.0020
      2 CL          8.1355    2.1560   14.5133 Cl      1  LIG1        0.0020
      3 CL         10.6665    0.6945   17.7156 Cl      1  LIG1       -0.0519
      4 CL         10.5278    3.5572   17.2027 Cl      1  LIG1       -0.0519
      5 CL          4.4411   16.9671   20.6679 Cl      2  LIG2        0.0020
      6 CL          6.7053   15.0080   21.7022 Cl      2  LIG2        0.0020
      7 CL          6.8101   15.3117   17.9762 Cl      2  LIG2       -0.0519
      8 CL          7.0314   18.1586   17.4042 Cl      2  LIG2       -0.0519
      9 O          10.7820    1.5172   14.8760 O.3     1  LIG1       -0.4214
     10 O           9.9193    1.1739   12.4549 O.2     1  LIG1       -0.2407
     11 O          12.4349    2.4130   18.6449 O.3     1  LIG1       -0.4529
     12 O           7.1128   17.4185   20.2532 O.3     2  LIG2       -0.4214
     13 O           6.3556   17.6694   22.7328 O.2     2  LIG2       -0.2407
     14 O           8.7454   16.3672   16.5134 O.3     2  LIG2       -0.4529
     15 P           9.9257    2.0007   13.6500 P.3     1  LIG1        0.4295
     16 P           6.2513   16.9349   21.4844 P.3     2  LIG2        0.4295
     17 C          11.6804    2.1753   17.5111 C.3     1  LIG1        0.2893
     18 C          12.6270    2.0266   16.3313 C.ar    1  LIG1        0.0691
     19 C          12.1757    1.7040   15.0396 C.ar    1  LIG1        0.1394
     20 C          13.0349    1.5359   13.9678 C.ar    1  LIG1       -0.0190
     21 H          12.7063    1.3001   13.1311 H       1  LIG1        0.0654
     22 C          14.4062    1.7265   14.1674 C.ar    1  LIG1       -0.0583
     23 H          14.9989    1.6261   13.4578 H       1  LIG1        0.0619
     24 C          14.8792    2.0661   15.4236 C.ar    1  LIG1       -0.0611
     25 H          15.7905    2.1999   15.5496 H       1  LIG1        0.0618
     26 C          14.0059    2.2100   16.5003 C.ar    1  LIG1       -0.0488
     27 H          14.3411    2.4305   17.3382 H       1  LIG1        0.0624
     28 C          11.8009    2.5182   19.9136 C.ar    1  LIG1        0.1247
     29 C          11.3908    3.7533   20.3654 C.ar    1  LIG1       -0.0198
     30 H          11.4701    4.5065   19.8248 H       1  LIG1        0.0654
     31 C          10.8543    3.8546   21.6512 C.ar    1  LIG1       -0.0583
     32 H          10.5642    4.6800   21.9683 H       1  LIG1        0.0619
     33 C          10.7523    2.7312   22.4581 C.ar    1  LIG1       -0.0615
     34 H          10.3914    2.8042   23.3126 H       1  LIG1        0.0618
     35 C          11.1876    1.4984   21.9953 C.ar    1  LIG1       -0.0583
     36 H          11.1244    0.7492   22.5417 H       1  LIG1        0.0619
     37 C          11.7212    1.3817   20.7097 C.ar    1  LIG1       -0.0198
     38 H          12.0178    0.5585   20.3936 H       1  LIG1        0.0654
     39 C           8.0012   16.6566   17.6402 C.3     2  LIG2        0.2893
     40 C           8.9421   16.8030   18.8247 C.ar    2  LIG2        0.0691
     41 C           8.4961   17.1705   20.1040 C.ar    2  LIG2        0.1394
     42 C           9.3529   17.3150   21.1790 C.ar    2  LIG2       -0.0190
     43 H           9.0297   17.5933   22.0059 H       2  LIG2        0.0654
     44 C          10.7119   17.0369   21.0051 C.ar    2  LIG2       -0.0583
     45 H          11.2986   17.1110   21.7215 H       2  LIG2        0.0619
     46 C          11.1824   16.6489   19.7599 C.ar    2  LIG2       -0.0611
     47 H          12.0861   16.4553   19.6485 H       2  LIG2        0.0618
     48 C          10.3118   16.5451   18.6673 C.ar    2  LIG2       -0.0488
     49 H          10.6436   16.3028   17.8317 H       2  LIG2        0.0624
     50 C           8.1026   16.2820   15.2520 C.ar    2  LIG2        0.1247
     51 C           8.0568   17.4153   14.4576 C.ar    2  LIG2       -0.0198
     52 H           8.3872   18.2262   14.7716 H       2  LIG2        0.0654
     53 C           7.5077   17.3209   13.1793 C.ar    2  LIG2       -0.0583
     54 H           7.4660   18.0756   12.6376 H       2  LIG2        0.0619
     55 C           7.0250   16.1127   12.7149 C.ar    2  LIG2       -0.0615
     56 H           6.6535   16.0569   11.8643 H       2  LIG2        0.0618
     57 C           7.0943   14.9859   13.5166 C.ar    2  LIG2       -0.0583
     58 H           6.7719   14.1734   13.1993 H       2  LIG2        0.0619
     59 C           7.6445   15.0610   14.7996 C.ar    2  LIG2       -0.0198
     60 H           7.7001   14.3049   15.3381 H       2  LIG2        0.0654
@<TRIPOS>BOND
     1    56    55    1
     2    10    15    2
     3    54    53    1
     4    55    53   ar
     5    55    57   ar
     6    21    20    1
     7    53    51   ar
     8    58    57    1
     9     1    15    1
    10    23    22    1
    11    57    59   ar
    12    15     2    1
    13    15     9    1
    14    20    22   ar
    15    20    19   ar
    16    22    24   ar
    17    51    52    1
    18    51    50   ar
    19    59    50   ar
    20    59    60    1
    21     9    19    1
    22    19    18   ar
    23    50    14    1
    24    24    25    1
    25    24    26   ar
    26    18    26   ar
    27    18    17    1
    28    26    27    1
    29    14    39    1
    30     4    17    1
    31     8    39    1
    32    17     3    1
    33    17    11    1
    34    39     7    1
    35    39    40    1
    36    49    48    1
    37    11    28    1
    38    48    40   ar
    39    48    46   ar
    40    40    41   ar
    41    47    46    1
    42    46    44   ar
    43    30    29    1
    44    28    29   ar
    45    28    37   ar
    46    41    12    1
    47    41    42   ar
    48    12    16    1
    49    29    31   ar
    50    38    37    1
    51     5    16    1
    52    37    35   ar
    53    44    42   ar
    54    44    45    1
    55    42    43    1
    56    16     6    1
    57    16    13    2
    58    31    32    1
    59    31    33   ar
    60    35    33   ar
    61    35    36    1
    62    33    34    1
