@<TRIPOS>MOLECULE
(Anthracen-9-ylmethyl)diethylamine at 100K
 41 43 0 0 0
SMALL
GASTEIGER

@<TRIPOS>ATOM
      1 N           2.0685   10.4022    6.0412 N.3     1  LIG1       -0.2986
      2 C           2.5068    8.2312    4.8872 C.ar    1  LIG1       -0.0180
      3 C           1.9422    7.8171    3.6529 C.ar    1  LIG1       -0.0129
      4 C           0.5809    8.0772    3.2788 C.ar    1  LIG1       -0.0537
      5 H           0.0252    8.5791    3.8638 H       1  LIG1        0.0624
      6 C           0.0665    7.6180    2.0978 C.ar    1  LIG1       -0.0612
      7 H          -0.8429    7.7944    1.8853 H       1  LIG1        0.0618
      8 C           0.8691    6.8821    1.1812 C.ar    1  LIG1       -0.0612
      9 H           0.4947    6.5630    0.3684 H       1  LIG1        0.0618
     10 C           2.1729    6.6367    1.4745 C.ar    1  LIG1       -0.0540
     11 H           2.7111    6.1639    0.8500 H       1  LIG1        0.0624
     12 C           2.7487    7.0776    2.7089 C.ar    1  LIG1       -0.0170
     13 C           4.0726    6.7662    3.0216 C.ar    1  LIG1       -0.0463
     14 H           4.5977    6.2795    2.3972 H       1  LIG1        0.0630
     15 C           4.6397    7.1581    4.2383 C.ar    1  LIG1       -0.0170
     16 C           5.9884    6.8102    4.5617 C.ar    1  LIG1       -0.0540
     17 H           6.4994    6.2954    3.9491 H       1  LIG1        0.0624
     18 C           6.5505    7.2089    5.7377 C.ar    1  LIG1       -0.0612
     19 H           7.4469    6.9689    5.9407 H       1  LIG1        0.0618
     20 C           5.7930    7.9840    6.6623 C.ar    1  LIG1       -0.0612
     21 H           6.1961    8.2707    7.4739 H       1  LIG1        0.0618
     22 C           4.4961    8.3226    6.3992 C.ar    1  LIG1       -0.0537
     23 H           4.0096    8.8353    7.0342 H       1  LIG1        0.0624
     24 C           3.8549    7.9167    5.1783 C.ar    1  LIG1       -0.0129
     25 C           1.6940    8.9812    5.9300 C.3     1  LIG1        0.0252
     26 H           0.7342    8.9193    5.6956 H       1  LIG1        0.0476
     27 H           1.8188    8.5451    6.8100 H       1  LIG1        0.0476
     28 C           1.7207   11.1213    4.8008 C.3     1  LIG1       -0.0036
     29 H           0.7437   11.2823    4.7859 H       1  LIG1        0.0424
     30 H           1.9436   10.5475    4.0251 H       1  LIG1        0.0424
     31 C           2.4398   12.4504    4.6548 C.3     1  LIG1       -0.0523
     32 H           2.1921   13.0398    5.3985 H       1  LIG1        0.0242
     33 H           2.1832   12.8698    3.8071 H       1  LIG1        0.0242
     34 H           3.4083   12.3005    4.6649 H       1  LIG1        0.0242
     35 C           1.3649   11.0027    7.1942 C.3     1  LIG1       -0.0036
     36 H           0.4181   10.7154    7.1753 H       1  LIG1        0.0424
     37 H           1.3806   11.9876    7.0993 H       1  LIG1        0.0424
     38 C           1.9626   10.6312    8.5432 C.3     1  LIG1       -0.0523
     39 H           1.9029    9.6608    8.6713 H       1  LIG1        0.0242
     40 H           1.4677   11.0850    9.2561 H       1  LIG1        0.0242
     41 H           2.9026   10.9081    8.5713 H       1  LIG1        0.0242
@<TRIPOS>BOND
     1     9     8    1
     2    11    10    1
     3     8    10   ar
     4     8     6   ar
     5    10    12   ar
     6     7     6    1
     7     6     4   ar
     8    14    13    1
     9    12    13   ar
    10    12     3   ar
    11    13    15   ar
    12     4     3   ar
    13     4     5    1
    14     3     2   ar
    15    33    31    1
    16    17    16    1
    17    30    28    1
    18    15    16   ar
    19    15    24   ar
    20    16    18   ar
    21    31    34    1
    22    31    28    1
    23    31    32    1
    24    29    28    1
    25    28     1    1
    26     2    24   ar
    27     2    25    1
    28    24    22   ar
    29    26    25    1
    30    18    19    1
    31    18    20   ar
    32    25     1    1
    33    25    27    1
    34     1    35    1
    35    22    20   ar
    36    22    23    1
    37    20    21    1
    38    37    35    1
    39    36    35    1
    40    35    38    1
    41    38    41    1
    42    38    39    1
    43    38    40    1
