@<TRIPOS>MOLECULE
2-Chloro-N-[N-(4-chlorobenzoyl)hydrazinocarbothioyl]benzamide
 34 35 0 0 0
SMALL
GASTEIGER

@<TRIPOS>ATOM
      1 CL         -1.9251    4.9242    2.6640 Cl      1  LIG1       -0.0828
      2 CL          7.1538   12.9155    3.7830 Cl      1  LIG1       -0.0835
      3 S          -0.7211    8.9712    5.4902 S.2     1  LIG1       -0.0170
      4 O          -1.4440    8.2416    1.0515 O.2     1  LIG1       -0.2698
      5 O           1.3899   10.6241    1.3008 O.2     1  LIG1       -0.2687
      6 N          -1.9477    8.1407    3.2731 N.am    1  LIG1       -0.2626
      7 H          -2.5694    7.9065    3.8187 H       1  LIG1        0.1569
      8 N           0.0597    9.1780    2.9721 N.am    1  LIG1       -0.2453
      9 H          -0.0786    9.0529    2.1326 H       1  LIG1        0.1718
     10 N           1.2231    9.7922    3.3686 N.am    1  LIG1       -0.2311
     11 H           1.5171    9.7364    4.1745 H       1  LIG1        0.1731
     12 C          -4.4931    7.5474    1.1181 C.ar    1  LIG1       -0.0482
     13 H          -4.4815    8.4328    0.8309 H       1  LIG1        0.0625
     14 C          -5.6339    6.7754    0.9470 C.ar    1  LIG1       -0.0610
     15 H          -6.3931    7.1455    0.5585 H       1  LIG1        0.0618
     16 C          -5.6401    5.4629    1.3545 C.ar    1  LIG1       -0.0603
     17 H          -6.4150    4.9571    1.2627 H       1  LIG1        0.0618
     18 C          -4.5174    4.8889    1.8951 C.ar    1  LIG1       -0.0427
     19 H          -4.5172    3.9914    2.1400 H       1  LIG1        0.0632
     20 C          -3.3903    5.6594    2.0698 C.ar    1  LIG1        0.0531
     21 C          -3.3716    6.9963    1.7151 C.ar    1  LIG1        0.0553
     22 C          -2.1593    7.8428    1.9521 C.2     1  LIG1        0.2510
     23 C          -0.8519    8.7736    3.8327 C.2     1  LIG1        0.1533
     24 C           1.8803   10.4920    2.4108 C.2     1  LIG1        0.2601
     25 C           3.1963   11.0557    2.8038 C.ar    1  LIG1        0.0382
     26 C           4.1210   11.2999    1.7923 C.ar    1  LIG1       -0.0482
     27 H           3.9053   11.0954    0.9111 H       1  LIG1        0.0625
     28 C           5.3549   11.8439    2.0870 C.ar    1  LIG1       -0.0427
     29 H           5.9772   11.9991    1.4137 H       1  LIG1        0.0632
     30 C           5.6461   12.1507    3.3931 C.ar    1  LIG1        0.0410
     31 C           4.7556   11.8963    4.4114 C.ar    1  LIG1       -0.0427
     32 H           4.9814   12.0941    5.2915 H       1  LIG1        0.0632
     33 C           3.5293   11.3465    4.1158 C.ar    1  LIG1       -0.0482
     34 H           2.9236   11.1707    4.7985 H       1  LIG1        0.0625
@<TRIPOS>BOND
     1    15    14    1
     2    13    12    1
     3    27    26    1
     4    14    12   ar
     5    14    16   ar
     6     4    22    2
     7    12    21   ar
     8    17    16    1
     9     5    24    2
    10    16    18   ar
    11    29    28    1
    12    21    22    1
    13    21    20   ar
    14    26    28   ar
    15    26    25   ar
    16    18    20   ar
    17    18    19    1
    18    22     6   am
    19    20     1    1
    20    28    30   ar
    21     9     8    1
    22    24    25    1
    23    24    10   am
    24    25    33   ar
    25     8    10    1
    26     8    23    1
    27     6     7    1
    28     6    23    1
    29    10    11    1
    30    30     2    1
    31    30    31   ar
    32    23     3    2
    33    33    31   ar
    34    33    34    1
    35    31    32    1
