@<TRIPOS>MOLECULE
2H-2-Phenylisophosphindoline-1,3-dione
 26 28 0 0 0
SMALL
GASTEIGER

@<TRIPOS>ATOM
      1 P           8.2320    2.2946    0.8316 P.3     1  LIG1        0.0745
      2 C           7.5926    3.6835    1.8762 C.2     1  LIG1        0.1971
      3 O           8.2733    4.4862    2.4598 O.2     1  LIG1       -0.2862
      4 C           6.5445    1.5264    0.9032 C.2     1  LIG1        0.1971
      5 O           6.2917    0.3853    0.6219 O.2     1  LIG1       -0.2862
      6 C           5.5579    2.5217    1.3550 C.ar    1  LIG1        0.0335
      7 C           4.1891    2.3576    1.3102 C.ar    1  LIG1       -0.0502
      8 C           3.3967    3.3853    1.7516 C.ar    1  LIG1       -0.0610
      9 C           3.9550    4.5497    2.2334 C.ar    1  LIG1       -0.0610
     10 C           5.3089    4.7083    2.3014 C.ar    1  LIG1       -0.0502
     11 C           6.1173    3.6787    1.8548 C.ar    1  LIG1        0.0335
     12 C           9.1048    1.2448    2.0263 C.ar    1  LIG1       -0.0087
     13 C          10.2288    0.5731    1.5905 C.ar    1  LIG1       -0.0533
     14 C          10.8800   -0.3087    2.4155 C.ar    1  LIG1       -0.0611
     15 C          10.4176   -0.5189    3.6862 C.ar    1  LIG1       -0.0617
     16 C           9.3151    0.1604    4.1420 C.ar    1  LIG1       -0.0611
     17 C           8.6588    1.0329    3.3186 C.ar    1  LIG1       -0.0533
     18 H           3.8162    1.5521    0.9568 H       1  LIG1        0.0625
     19 H           2.4876    3.2621    1.7290 H       1  LIG1        0.0618
     20 H           3.3844    5.1994    2.5179 H       1  LIG1        0.0618
     21 H           5.7306    5.4586    2.6102 H       1  LIG1        0.0625
     22 H          10.5240    0.7051    0.7134 H       1  LIG1        0.0624
     23 H          11.6088   -0.7442    2.1151 H       1  LIG1        0.0618
     24 H          10.8452   -1.1409    4.2553 H       1  LIG1        0.0618
     25 H           8.9836    0.0232    5.0191 H       1  LIG1        0.0618
     26 H           7.9039    1.4783    3.6258 H       1  LIG1        0.0624
@<TRIPOS>BOND
     1     5     4    2
     2    22    13    1
     3     1     4    1
     4     1     2    1
     5     1    12    1
     6     4     6    1
     7    18     7    1
     8     7     6   ar
     9     7     8   ar
    10     6    11   ar
    11    13    12   ar
    12    13    14   ar
    13    19     8    1
    14     8     9   ar
    15    11     2    1
    16    11    10   ar
    17     2     3    2
    18    12    17   ar
    19    23    14    1
    20     9    10   ar
    21     9    20    1
    22    10    21    1
    23    14    15   ar
    24    17    26    1
    25    17    16   ar
    26    15    16   ar
    27    15    24    1
    28    16    25    1
