@<TRIPOS>MOLECULE
3-fluoro-4-methylbenzoic acid
 18 18 0 0 0
SMALL
GASTEIGER

@<TRIPOS>ATOM
      1 F           0.0738    4.2778    8.9035 F       1  LIG1       -0.2052
      2 O           0.2280    4.5248   14.8298 O.3     1  LIG1       -0.4771
      3 H          -0.0403    5.0771   15.5084 H       1  LIG1        0.2954
      4 O          -0.7988    6.0220   13.5181 O.2     1  LIG1       -0.2451
      5 C           0.2424    4.1405   12.5084 C.ar    1  LIG1        0.0616
      6 C          -0.0221    4.6151   11.2234 C.ar    1  LIG1       -0.0122
      7 H          -0.4876    5.4866   11.0805 H       1  LIG1        0.0654
      8 C           0.3356    3.8183   10.1560 C.ar    1  LIG1        0.1271
      9 C           0.9418    2.5753   10.2798 C.ar    1  LIG1       -0.0152
     10 C           1.1883    2.1278   11.5791 C.ar    1  LIG1       -0.0553
     11 H           1.6456    1.2587   11.6540 H       1  LIG1        0.0621
     12 C           0.8448    2.9017   12.6853 C.ar    1  LIG1       -0.0474
     13 H           1.0186    2.5777   13.6146 H       1  LIG1        0.0626
     14 C          -0.1543    4.9777   13.6644 C.2     1  LIG1        0.3369
     15 C           1.3187    1.7604    9.0716 C.3     1  LIG1       -0.0370
     16 H           1.9049    2.2163    8.5099 H       1  LIG1        0.0278
     17 H           1.8510    0.9937    9.3081 H       1  LIG1        0.0278
     18 H           0.5686    1.5177    8.5493 H       1  LIG1        0.0278
@<TRIPOS>BOND
     1    16    15    1
     2    18    15    1
     3     1     8    1
     4    15    17    1
     5    15     9    1
     6     8     9   ar
     7     8     6   ar
     8     9    10   ar
     9     7     6    1
    10     6     5   ar
    11    10    11    1
    12    10    12   ar
    13     5    12   ar
    14     5    14    1
    15    12    13    1
    16     4    14    2
    17    14     2    1
    18     2     3    1
