@<TRIPOS>MOLECULE
3-Benzyl-4-(4-methylphenyl)-1H-1,2,4-triazole-5(4H)-thione
 35 37 0 0 0
SMALL
GASTEIGER

@<TRIPOS>ATOM
      1 S           7.5766    0.5899    8.4471 S.2     1  LIG1       -0.0111
      2 N           6.6938    2.9505    9.5572 N.ar    1  LIG1       -0.2751
      3 N           5.1201    1.7273    8.7902 N.ar    1  LIG1       -0.2540
      4 H           4.6952    1.0758    8.4224 H       1  LIG1        0.1910
      5 N           4.4947    2.8463    9.3025 N.ar    1  LIG1       -0.1579
      6 C           6.4550    1.7546    8.9219 C.ar    1  LIG1        0.1801
      7 C           5.4731    3.5716    9.7630 C.ar    1  LIG1        0.1407
      8 C           5.2935    4.8947   10.4383 C.3     1  LIG1        0.0329
      9 H           4.7760    5.4794    9.8620 H       1  LIG1        0.0392
     10 H           6.1625    5.3037   10.5755 H       1  LIG1        0.0392
     11 C           4.5850    4.7599   11.7818 C.ar    1  LIG1       -0.0400
     12 C           3.1958    4.7051   11.8336 C.ar    1  LIG1       -0.0582
     13 H           2.7005    4.7600   11.0485 H       1  LIG1        0.0620
     14 C           2.5459    4.5684   13.0502 C.ar    1  LIG1       -0.0615
     15 H           1.6166    4.5294   13.0766 H       1  LIG1        0.0618
     16 C           3.2740    4.4904   14.2269 C.ar    1  LIG1       -0.0617
     17 H           2.8358    4.4022   15.0414 H       1  LIG1        0.0618
     18 C           4.6551    4.5453   14.1846 C.ar    1  LIG1       -0.0615
     19 H           5.1456    4.4918   14.9734 H       1  LIG1        0.0618
     20 C           5.3104    4.6792   12.9670 C.ar    1  LIG1       -0.0582
     21 H           6.2396    4.7152   12.9437 H       1  LIG1        0.0620
     22 C           8.0063    3.4586    9.8714 C.ar    1  LIG1        0.0502
     23 C           8.4021    3.5795   11.1952 C.ar    1  LIG1       -0.0375
     24 H           7.8224    3.3488   11.8854 H       1  LIG1        0.0638
     25 C           9.6802    4.0517   11.4730 C.ar    1  LIG1       -0.0569
     26 H           9.9427    4.1607   12.3584 H       1  LIG1        0.0621
     27 C          10.5738    4.3648   10.4556 C.ar    1  LIG1       -0.0503
     28 C          10.1408    4.2402    9.1383 C.ar    1  LIG1       -0.0569
     29 H          10.7236    4.4542    8.4462 H       1  LIG1        0.0621
     30 C           8.8603    3.8050    8.8349 C.ar    1  LIG1       -0.0375
     31 H           8.5780    3.7464    7.9510 H       1  LIG1        0.0638
     32 C          12.0001    4.7427   10.7666 C.3     1  LIG1       -0.0397
     33 H          12.0202    5.2958   11.5516 H       1  LIG1        0.0278
     34 H          12.3724    5.2249   10.0250 H       1  LIG1        0.0278
     35 H          12.5153    3.9474   10.9220 H       1  LIG1        0.0278
@<TRIPOS>BOND
     1    31    30    1
     2     4     3    1
     3    29    28    1
     4     1     6    2
     5     3     6   ar
     6     3     5   ar
     7    30    28   ar
     8    30    22   ar
     9     6     2   ar
    10    28    27   ar
    11     5     7   ar
    12     2     7   ar
    13     2    22    1
    14     7     8    1
    15     9     8    1
    16    22    23   ar
    17    34    32    1
    18     8    10    1
    19     8    11    1
    20    27    32    1
    21    27    25   ar
    22    32    35    1
    23    32    33    1
    24    13    12    1
    25    23    25   ar
    26    23    24    1
    27    25    26    1
    28    11    12   ar
    29    11    20   ar
    30    12    14   ar
    31    21    20    1
    32    20    18   ar
    33    14    15    1
    34    14    16   ar
    35    18    16   ar
    36    18    19    1
    37    16    17    1
