@<TRIPOS>MOLECULE
4-fluorobenzaldehyde (pyridine-2-carbonyl)hydrazone
 28 29 0 0 0
SMALL
GASTEIGER

@<TRIPOS>ATOM
      1 F           2.2737   -5.8146    1.3076 F       1  LIG1       -0.2055
      2 O          -2.0102    1.6333    2.3685 O.2     1  LIG1       -0.2668
      3 N           0.2408    0.1526    1.8099 N.2     1  LIG1       -0.1874
      4 N           0.1820    1.5300    1.8143 N.am    1  LIG1       -0.2017
      5 N           0.3109    4.1684    1.5535 N.ar    1  LIG1       -0.2503
      6 C           1.6010   -1.7791    1.4913 C.ar    1  LIG1       -0.0053
      7 C           0.6311   -2.6775    1.8825 C.ar    1  LIG1       -0.0504
      8 H          -0.1891   -2.3613    2.1846 H       1  LIG1        0.0625
      9 C           0.8546   -4.0345    1.8334 C.ar    1  LIG1       -0.0258
     10 H           0.2010   -4.6354    2.1091 H       1  LIG1        0.0646
     11 C           2.0561   -4.4724    1.3720 C.ar    1  LIG1        0.1234
     12 C           3.0364   -3.6340    0.9735 C.ar    1  LIG1       -0.0258
     13 H           3.8462   -3.9630    0.6550 H       1  LIG1        0.0646
     14 C           2.8059   -2.2752    1.0513 C.ar    1  LIG1       -0.0504
     15 H           3.4785   -1.6831    0.8005 H       1  LIG1        0.0625
     16 C           1.3769   -0.3399    1.5453 C.2     1  LIG1        0.0528
     17 H           2.0899    0.2341    1.3800 H       1  LIG1        0.0851
     18 C          -0.9686    2.1749    2.0746 C.2     1  LIG1        0.2816
     19 C          -0.8457    3.6732    1.9899 C.ar    1  LIG1        0.1270
     20 C          -1.9008    4.4521    2.3675 C.ar    1  LIG1       -0.0311
     21 H          -2.6978    4.0629    2.6460 H       1  LIG1        0.0640
     22 C          -1.7673    5.8253    2.3295 C.ar    1  LIG1       -0.0582
     23 H          -2.4606    6.3799    2.6062 H       1  LIG1        0.0619
     24 C          -0.5991    6.3434    1.8776 C.ar    1  LIG1       -0.0436
     25 H          -0.4785    7.2651    1.8317 H       1  LIG1        0.0633
     26 C           0.3963    5.4951    1.4902 C.ar    1  LIG1        0.0284
     27 H           1.1827    5.8674    1.1617 H       1  LIG1        0.0830
     28 H           0.8941    2.0115    1.5914 H       1  LIG1        0.1776
@<TRIPOS>BOND
     1    13    12    1
     2    15    14    1
     3    12    14   ar
     4    12    11   ar
     5    14     6   ar
     6    27    26    1
     7     1    11    1
     8    11     9   ar
     9    17    16    1
    10    26     5   ar
    11    26    24   ar
    12     6    16    1
    13     6     7   ar
    14    16     3    2
    15     5    19   ar
    16    28     4    1
    17     3     4    1
    18     4    18   am
    19    25    24    1
    20     9     7   ar
    21     9    10    1
    22    24    22   ar
    23     7     8    1
    24    19    18    1
    25    19    20   ar
    26    18     2    2
    27    22    20   ar
    28    22    23    1
    29    20    21    1
