@<TRIPOS>MOLECULE
N-(1,3-Benzothiazol-2-yl)-4-(dimethylamino)benzylamine
 70 74 0 0 0
SMALL
GASTEIGER

@<TRIPOS>ATOM
      1 C           2.2409    4.4465    6.5715 C.ar    1  LIG1        0.0805
      2 C           1.2446    5.4135    6.6597 C.ar    1  LIG1       -0.0351
      3 H           0.5634    5.4450    6.0273 H       1  LIG1        0.0639
      4 C           1.2757    6.3185    7.6861 C.ar    1  LIG1       -0.0597
      5 H           0.6190    6.9742    7.7387 H       1  LIG1        0.0618
      6 C           2.2712    6.2722    8.6474 C.ar    1  LIG1       -0.0606
      7 H           2.2748    6.8970    9.3366 H       1  LIG1        0.0618
      8 C           3.2504    5.3150    8.5928 C.ar    1  LIG1       -0.0458
      9 H           3.9144    5.2794    9.2431 H       1  LIG1        0.0629
     10 C           3.2350    4.4025    7.5517 C.ar    1  LIG1        0.0410
     11 C           3.4159    2.7579    5.7825 C.ar    1  LIG1        0.1936
     12 C           3.4799    1.5593    3.8368 C.2     1  LIG1        0.0376
     13 H           2.7987    2.1190    3.5394 H       1  LIG1        0.0836
     14 C           3.9870    0.5293    2.9480 C.ar    1  LIG1       -0.0068
     15 C           4.9454   -0.3950    3.3724 C.ar    1  LIG1       -0.0514
     16 H           5.2532   -0.3630    4.2496 H       1  LIG1        0.0624
     17 C           5.4357   -1.3420    2.5214 C.ar    1  LIG1       -0.0401
     18 H           6.0664   -1.9511    2.8324 H       1  LIG1        0.0636
     19 C           5.0122   -1.4166    1.1882 C.ar    1  LIG1        0.0292
     20 C           4.0486   -0.4787    0.7764 C.ar    1  LIG1       -0.0401
     21 H           3.7379   -0.4991   -0.0998 H       1  LIG1        0.0636
     22 C           3.5627    0.4587    1.6326 C.ar    1  LIG1       -0.0514
     23 H           2.9299    1.0663    1.3258 H       1  LIG1        0.0624
     24 C           6.5292   -3.2856    0.7501 C.3     1  LIG1        0.0004
     25 H           7.3547   -2.8087    0.8667 H       1  LIG1        0.0428
     26 H           6.6412   -3.9590    0.0767 H       1  LIG1        0.0428
     27 H           6.2791   -3.7003    1.5801 H       1  LIG1        0.0428
     28 C           5.1391   -2.3647   -1.0590 C.3     1  LIG1        0.0004
     29 H           4.1857   -2.4321   -1.1462 H       1  LIG1        0.0428
     30 H           5.5538   -3.1127   -1.4971 H       1  LIG1        0.0428
     31 H           5.4407   -1.5496   -1.4645 H       1  LIG1        0.0428
     32 C          -5.3169    4.4195   12.4233 C.ar    2  LIG2        0.0805
     33 C          -4.9820    5.3681   13.3867 C.ar    2  LIG2       -0.0351
     34 H          -4.0993    5.4654   13.6651 H       2  LIG2        0.0639
     35 C          -5.9720    6.1572   13.9193 C.ar    2  LIG2       -0.0597
     36 H          -5.7544    6.7972   14.5581 H       2  LIG2        0.0618
     37 C          -7.2782    6.0140   13.5211 C.ar    2  LIG2       -0.0606
     38 H          -7.9310    6.5635   13.8899 H       2  LIG2        0.0618
     39 C          -7.6356    5.0745   12.5882 C.ar    2  LIG2       -0.0458
     40 H          -8.5232    4.9777   12.3266 H       2  LIG2        0.0629
     41 C          -6.6437    4.2728   12.0450 C.ar    2  LIG2        0.0410
     42 C          -5.0128    2.8412   10.9037 C.ar    2  LIG2        0.1936
     43 C          -4.9746    1.1984    9.2912 C.2     2  LIG2        0.0376
     44 H          -5.9019    1.1798    9.3597 H       2  LIG2        0.0836
     45 C          -4.3498    0.3417    8.3280 C.ar    2  LIG2       -0.0068
     46 C          -5.1196   -0.5611    7.5842 C.ar    2  LIG2       -0.0514
     47 H          -6.0429   -0.5717    7.7029 H       2  LIG2        0.0624
     48 C          -4.5562   -1.4257    6.6912 C.ar    2  LIG2       -0.0401
     49 H          -5.0993   -2.0124    6.2164 H       2  LIG2        0.0636
     50 C          -3.1664   -1.4416    6.4790 C.ar    2  LIG2        0.0292
     51 C          -2.4033   -0.4887    7.1850 C.ar    2  LIG2       -0.0401
     52 H          -1.4864   -0.4356    7.0369 H       2  LIG2        0.0636
     53 C          -2.9849    0.3542    8.0791 C.ar    2  LIG2       -0.0514
     54 H          -2.4497    0.9597    8.5392 H       2  LIG2        0.0624
     55 C          -3.3597   -3.2756    4.8769 C.3     2  LIG2        0.0004
     56 H          -3.9158   -3.7820    5.4736 H       2  LIG2        0.0428
     57 H          -2.7720   -3.8705    4.4062 H       2  LIG2        0.0428
     58 H          -3.9107   -2.8042    4.2475 H       2  LIG2        0.0428
     59 C          -1.1416   -2.3427    5.4326 C.3     2  LIG2        0.0004
     60 H          -0.8556   -1.4860    5.1069 H       2  LIG2        0.0428
     61 H          -0.9142   -3.0197    4.7918 H       2  LIG2        0.0428
     62 H          -0.7031   -2.5319    6.2657 H       2  LIG2        0.0428
     63 N           2.3607    3.4909    5.5559 N.ar    1  LIG1       -0.2211
     64 N           3.9410    1.7172    5.0086 N.2     1  LIG1       -0.2295
     65 N           5.4984   -2.3679    0.3431 N.pl3   1  LIG1       -0.3360
     66 N          -4.4048    3.6005   11.7644 N.ar    2  LIG2       -0.2211
     67 N          -4.3208    1.9947   10.0690 N.2     2  LIG2       -0.2295
     68 N          -2.5814   -2.3293    5.6341 N.pl3   2  LIG2       -0.3360
     69 S           4.3309    3.1116    7.2032 S.2     1  LIG1       -0.0479
     70 S          -6.7721    3.0370   10.8359 S.2     2  LIG2       -0.0479
@<TRIPOS>BOND
     1    30    28    1
     2    31    28    1
     3    29    28    1
     4    28    65    1
     5    21    20    1
     6    26    24    1
     7    65    24    1
     8    65    19    1
     9    24    25    1
    10    24    27    1
    11    20    19   ar
    12    20    22   ar
    13    19    17   ar
    14    23    22    1
    15    22    14   ar
    16    17    18    1
    17    17    15   ar
    18    14    15   ar
    19    14    12    1
    20    15    16    1
    21    13    12    1
    22    12    64    2
    23    58    55    1
    24    57    55    1
    25    61    59    1
    26    55    56    1
    27    55    68    1
    28    64    11    1
    29    60    59    1
    30    59    68    1
    31    59    62    1
    32    63    11   ar
    33    63     1   ar
    34    68    50    1
    35    11    69   ar
    36     3     2    1
    37    49    48    1
    38    50    48   ar
    39    50    51   ar
    40     1     2   ar
    41     1    10   ar
    42     2     4   ar
    43    48    46   ar
    44    52    51    1
    45    51    53   ar
    46    69    10   ar
    47    10     8   ar
    48    46    47    1
    49    46    45   ar
    50     4     5    1
    51     4     6   ar
    52    53    45   ar
    53    53    54    1
    54    45    43    1
    55     8     6   ar
    56     8     9    1
    57     6     7    1
    58    43    44    1
    59    43    67    2
    60    67    42    1
    61    70    42   ar
    62    70    41   ar
    63    42    66   ar
    64    66    32   ar
    65    41    32   ar
    66    41    39   ar
    67    40    39    1
    68    32    33   ar
    69    39    37   ar
    70    33    34    1
    71    33    35   ar
    72    37    38    1
    73    37    35   ar
    74    35    36    1
