@<TRIPOS>MOLECULE
1-(2-Bromo-1,1-dimethoxyethyl)-4-nitrobenzene
 28 28 0 0 0
SMALL
GASTEIGER

@<TRIPOS>ATOM
      1 BR          2.3144    0.3939    6.6285 Br      1  LIG1       -0.0859
      2 O           5.9178    0.6267    4.7483 O.3     1  LIG1       -0.3474
      3 O           4.8292   -1.2670    5.5761 O.3     1  LIG1       -0.3474
      4 O           1.4000    0.4686   -0.4773 O.2     1  LIG1       -0.1261
      5 O           1.3525   -1.6600   -0.2167 O.2     1  LIG1       -0.1261
      6 N           1.6572   -0.5486    0.1511 N.pl3   1  LIG1        0.0564
      7 C           3.8462   -0.1624    3.7496 C.ar    1  LIG1        0.0120
      8 C           3.3938   -1.4030    3.3362 C.ar    1  LIG1       -0.0513
      9 C           2.6678   -1.5385    2.1648 C.ar    1  LIG1       -0.0311
     10 C           2.4008   -0.4086    1.4182 C.ar    1  LIG1        0.1262
     11 C           2.8262    0.8370    1.8066 C.ar    1  LIG1       -0.0311
     12 C           3.5537    0.9613    2.9736 C.ar    1  LIG1       -0.0513
     13 C           4.6710    0.0134    5.0228 C.3     1  LIG1        0.2058
     14 C           4.0375    1.0094    5.9887 C.3     1  LIG1        0.0620
     15 C           6.7449   -0.0826    3.8161 C.3     1  LIG1        0.0401
     16 C           5.5829   -1.3464    6.7888 C.3     1  LIG1        0.0401
     17 H           3.5789   -2.1542    3.8515 H       1  LIG1        0.0623
     18 H           2.3671   -2.3733    1.8860 H       1  LIG1        0.0640
     19 H           2.6277    1.5857    1.2922 H       1  LIG1        0.0640
     20 H           3.8507    1.7991    3.2455 H       1  LIG1        0.0623
     21 H           3.9274    1.8628    5.5416 H       1  LIG1        0.0438
     22 H           4.6310    1.1428    6.7448 H       1  LIG1        0.0438
     23 H           6.7498   -1.0166    4.0379 H       1  LIG1        0.0525
     24 H           7.6403    0.2603    3.8575 H       1  LIG1        0.0525
     25 H           6.3984    0.0336    2.9279 H       1  LIG1        0.0525
     26 H           6.4095   -0.8699    6.6835 H       1  LIG1        0.0525
     27 H           5.7676   -2.2662    6.9917 H       1  LIG1        0.0525
     28 H           5.0779   -0.9564    7.5061 H       1  LIG1        0.0525
@<TRIPOS>BOND
     1     4     6    2
     2     5     6    2
     3     6    10    1
     4    19    11    1
     5    10    11   ar
     6    10     9   ar
     7    11    12   ar
     8    18     9    1
     9     9     8   ar
    10    25    15    1
    11    12    20    1
    12    12     7   ar
    13     8     7   ar
    14     8    17    1
    15     7    13    1
    16    15    24    1
    17    15    23    1
    18    15     2    1
    19     2    13    1
    20    13     3    1
    21    13    14    1
    22    21    14    1
    23     3    16    1
    24    14     1    1
    25    14    22    1
    26    26    16    1
    27    16    27    1
    28    16    28    1
