@<TRIPOS>MOLECULE
Quinol--Pyridine (1/1)
 25 23 0 0 0
SMALL
GASTEIGER

@<TRIPOS>ATOM
      1 O           8.3582    0.6048    2.4544 O.2     1  LIG1       -0.5035
      2 H           8.7110    1.4606    2.6250 H       1  LIG1        0.2923
      3 C           7.6434    0.2365    3.5705 C.2     1  LIG1        0.1542
      4 C           8.0320    0.5925    4.8575 C.2     1  LIG1       -0.0346
      5 H           8.8170    1.1116    4.9884 H       1  LIG1        0.0612
      6 C           7.2776    0.1925    5.9494 C.3     1  LIG1       -0.0052
      7 H           7.5438    0.4463    6.8250 H       1  LIG1        0.0356
      8 O           3.4416    3.2071    2.6656 O.2     2  LIG2       -0.5035
      9 H           2.9608    3.8619    2.2233 H       2  LIG2        0.2923
     10 C           4.2045    3.7642    3.6645 C.2     2  LIG2        0.1542
     11 C           5.2733    3.0324    4.1705 C.2     2  LIG2       -0.0346
     12 H           5.4506    2.1615    3.8357 H       2  LIG2        0.0612
     13 C           6.0815    3.5706    5.1630 C.3     2  LIG2       -0.0052
     14 H           6.8184    3.0706    5.4938 H       2  LIG2        0.0356
     15 N           5.6422    3.7797   -1.3453 N.ar    3  LIG3       -0.2633
     16 C           5.2633    3.1248   -0.2462 C.ar    3  LIG3        0.0276
     17 H           4.4595    3.3902    0.1850 H       3  LIG3        0.0829
     18 C           5.9853    2.0812    0.2939 C.ar    3  LIG3       -0.0436
     19 H           5.6880    1.6441    1.0836 H       3  LIG3        0.0633
     20 C           7.1459    1.6836   -0.3325 C.ar    3  LIG3       -0.0589
     21 H           7.6577    0.9614    0.0121 H       3  LIG3        0.0618
     22 C           7.5518    2.3502   -1.4665 C.ar    3  LIG3       -0.0436
     23 H           8.3496    2.1002   -1.9169 H       3  LIG3        0.0633
     24 C           6.7748    3.3890   -1.9360 C.ar    3  LIG3        0.0276
     25 H           7.0587    3.8490   -2.7175 H       3  LIG3        0.0829
@<TRIPOS>BOND
     1    25    24    1
     2    24    22   ar
     3    24    15   ar
     4    23    22    1
     5    22    20   ar
     6    15    16   ar
     7    20    21    1
     8    20    18   ar
     9    16    17    1
    10    16    18   ar
    11    18    19    1
    12     9     8    1
    13     1     2    1
    14     1     3    1
    15     8    10    1
    16     3     4    2
    17    10    11    2
    18    12    11    1
    19    11    13    1
    20     4     5    1
    21     4     6    1
    22    13    14    1
    23     6     7    1
