@<TRIPOS>MOLECULE
(E)-3-Nitrobenzaldehyde O-acetyloxime
 23 23 0 0 0
SMALL
GASTEIGER

@<TRIPOS>ATOM
      1 O          -0.5864    1.2676    3.4783 O.3     1  LIG1       -0.3487
      2 O          -1.4139    3.3082    3.9167 O.2     1  LIG1       -0.2493
      3 O           4.2744    0.2254   -3.0056 O.2     1  LIG1       -0.1261
      4 O           3.3368   -1.3100   -1.8571 O.2     1  LIG1       -0.1261
      5 N           0.1704    1.8951    2.4411 N.4     1  LIG1       -0.0256
      6 N           3.5893   -0.1413   -2.0750 N.pl3   1  LIG1        0.0564
      7 C           1.6595    1.4273    0.6817 C.ar    1  LIG1       -0.0214
      8 C           2.0263    2.7705    0.5069 C.ar    1  LIG1       -0.0567
      9 C           2.8942    3.1281   -0.4915 C.ar    1  LIG1       -0.0593
     10 C           3.4249    2.1863   -1.3398 C.ar    1  LIG1       -0.0315
     11 C           3.0473    0.8801   -1.1650 C.ar    1  LIG1        0.1265
     12 C           2.1812    0.4731   -0.1697 C.ar    1  LIG1       -0.0266
     13 C           0.7595    1.0203    1.7594 C.3     1  LIG1        0.1153
     14 C          -1.3209    2.1650    4.1943 C.2     1  LIG1        0.3249
     15 C          -1.9748    1.4811    5.3377 C.3     1  LIG1        0.0350
     16 H           1.6779    3.4215    1.0719 H       1  LIG1        0.0621
     17 H           3.1277    4.0227   -0.5957 H       1  LIG1        0.0618
     18 H           4.0210    2.4277   -2.0121 H       1  LIG1        0.0640
     19 H           1.9541   -0.4237   -0.0742 H       1  LIG1        0.0643
     20 H           0.6250    0.1179    1.9400 H       1  LIG1        0.0583
     21 H          -2.4867    2.1180    5.8416 H       1  LIG1        0.0342
     22 H          -1.3042    1.0905    5.9029 H       1  LIG1        0.0342
     23 H          -2.5567    0.7919    5.0086 H       1  LIG1        0.0342
@<TRIPOS>BOND
     1     3     6    2
     2     6     4    2
     3     6    11    1
     4    18    10    1
     5    10    11   ar
     6    10     9   ar
     7    11    12   ar
     8    17     9    1
     9     9     8   ar
    10    12    19    1
    11    12     7   ar
    12     8     7   ar
    13     8    16    1
    14     7    13    1
    15    13    20    1
    16    13     5    1
    17     5     1    1
    18     1    14    1
    19     2    14    2
    20    14    15    1
    21    23    15    1
    22    15    21    1
    23    15    22    1
