@<TRIPOS>MOLECULE
trans-4-[(4-Dimethylaminophenyl)ethenyl]-N-methylquinolinium  p-toluenesulfonate monohydrate
 64 65 0 0 0
SMALL
GASTEIGER

@<TRIPOS>ATOM
      1 C          -0.2008    4.4542    3.2241 C.ar    1  LIG1        0.1196
      2 C          -1.5134    4.4753    3.6658 C.ar    1  LIG1       -0.0341
      3 H          -1.7048    4.6975    4.5691 H       1  LIG1        0.0637
      4 C          -2.5467    4.1750    2.7965 C.ar    1  LIG1       -0.0570
      5 H          -3.4448    4.2078    3.1047 H       1  LIG1        0.0621
      6 C          -2.2877    3.8279    1.4863 C.ar    1  LIG1       -0.0503
      7 C          -0.9700    3.8054    1.0623 C.ar    1  LIG1       -0.0570
      8 H          -0.7776    3.5710    0.1616 H       1  LIG1        0.0621
      9 C           0.0740    4.1168    1.9154 C.ar    1  LIG1       -0.0341
     10 H           0.9708    4.0985    1.6031 H       1  LIG1        0.0637
     11 C          -3.4148    3.4695    0.5549 C.3     1  LIG1       -0.0397
     12 H          -3.9267    2.7245    0.9338 H       1  LIG1        0.0278
     13 H          -3.0479    3.2050   -0.3146 H       1  LIG1        0.0278
     14 H          -4.0023    4.2446    0.4390 H       1  LIG1        0.0278
     15 C          -4.7645   10.0799    0.9949 C.3     2  LIG2        0.0004
     16 H          -4.9119   10.7955    1.6474 H       2  LIG2        0.0428
     17 H          -5.6254    9.6883    0.7379 H       2  LIG2        0.0428
     18 H          -4.3222   10.4469    0.2016 H       2  LIG2        0.0428
     19 C          -4.3880    7.6863    1.5373 C.3     2  LIG2        0.0004
     20 H          -4.0395    7.2519    0.7308 H       2  LIG2        0.0428
     21 H          -5.3670    7.6745    1.5173 H       2  LIG2        0.0428
     22 H          -4.0716    7.2045    2.3310 H       2  LIG2        0.0428
     23 C          -2.6668    9.3623    2.0307 C.ar    2  LIG2        0.0292
     24 C          -2.2562   10.6958    2.1475 C.ar    2  LIG2       -0.0401
     25 H          -2.8339   11.3934    1.8605 H       2  LIG2        0.0636
     26 C          -1.0201   11.0064    2.6744 C.ar    2  LIG2       -0.0529
     27 H          -0.7702   11.9201    2.7529 H       2  LIG2        0.0624
     28 C          -0.1224   10.0201    3.0967 C.ar    2  LIG2       -0.0252
     29 C          -0.5181    8.6827    2.9388 C.ar    2  LIG2       -0.0529
     30 H           0.0750    7.9868    3.1962 H       2  LIG2        0.0624
     31 C          -1.7501    8.3606    2.4181 C.ar    2  LIG2       -0.0401
     32 H          -1.9876    7.4467    2.3167 H       2  LIG2        0.0636
     33 C           1.1318   10.4145    3.6997 C.2     2  LIG2       -0.0573
     34 H           1.3179   11.3457    3.7167 H       2  LIG2        0.0621
     35 C           2.0657    9.6055    4.2393 C.2     2  LIG2       -0.0678
     36 H           1.8877    8.6726    4.2587 H       2  LIG2        0.0585
     37 C           3.3210   10.0677    4.7899 C.3     2  LIG2        0.0519
     38 C           3.6070   11.4218    4.9218 C.2     2  LIG2       -0.0543
     39 H           2.9652   12.0654    4.6463 H       2  LIG2        0.0597
     40 C           4.8042   11.8392    5.4463 C.2     2  LIG2       -0.0063
     41 H           4.9596   12.7714    5.5372 H       2  LIG2        0.0780
     42 C           6.9873   11.5397    6.4260 C.3     2  LIG2        0.0052
     43 H           6.9427   12.5184    6.4324 H       2  LIG2        0.0432
     44 H           7.7602   11.2509    5.8961 H       2  LIG2        0.0432
     45 H           7.0803   11.2109    7.3448 H       2  LIG2        0.0432
     46 C           4.3247    9.1501    5.2405 C.ar    2  LIG2       -0.0109
     47 C           5.5587    9.6336    5.7454 C.ar    2  LIG2        0.0377
     48 C           6.5618    8.7460    6.1684 C.ar    2  LIG2       -0.0401
     49 H           7.3983    9.0813    6.4682 H       2  LIG2        0.0636
     50 C           6.3311    7.4001    6.1471 C.ar    2  LIG2       -0.0600
     51 H           7.0084    6.7992    6.4339 H       2  LIG2        0.0618
     52 C           5.1007    6.9036    5.7048 C.ar    2  LIG2       -0.0614
     53 H           4.9351    5.9691    5.7288 H       2  LIG2        0.0618
     54 C           4.1355    7.7489    5.2380 C.ar    2  LIG2       -0.0556
     55 H           3.3225    7.3888    4.9051 H       2  LIG2        0.0621
     56 N          -3.9234    9.0522    1.5865 N.pl3   2  LIG2       -0.3360
     57 N           5.7544   10.9955    5.8321 N.pl3   2  LIG2       -0.3095
     58 O           0.5699    4.6348    5.6739 O.3     1  LIG1       -0.0427
     59 O           2.1856    3.9232    4.0372 O.2     1  LIG1       -0.1397
     60 O           1.4629    6.2270    4.0918 O.2     1  LIG1       -0.1397
     61 S           1.1136    4.8507    4.3428 S.3     1  LIG1        0.1396
     62 O           4.1672    3.5671    6.0376 O.3     3  HOH3       -0.4105
     63 H           3.4711    3.7043    5.4929 H       0  HOH0        0.2052
     64 H           3.8421    3.3988    6.8114 H       0  HOH0        0.2052
@<TRIPOS>BOND
     1    13    11    1
     2     8     7    1
     3    18    15    1
     4    14    11    1
     5    11    12    1
     6    11     6    1
     7    20    19    1
     8    17    15    1
     9    15    56    1
    10    15    16    1
    11     7     6   ar
    12     7     9   ar
    13     6     4   ar
    14    21    19    1
    15    19    56    1
    16    19    22    1
    17    56    23    1
    18    10     9    1
    19    25    24    1
    20     9     1   ar
    21    23    24   ar
    22    23    31   ar
    23    24    26   ar
    24    32    31    1
    25    31    29   ar
    26    26    27    1
    27    26    28   ar
    28     4     5    1
    29     4     2   ar
    30    29    28   ar
    31    29    30    1
    32    28    33    1
    33     1     2   ar
    34     1    61    1
    35     2     3    1
    36    33    34    1
    37    33    35    2
    38    59    61    2
    39    60    61    2
    40    35    36    1
    41    35    37    1
    42    61    58    1
    43    39    38    1
    44    37    38    1
    45    37    46    1
    46    55    54    1
    47    38    40    2
    48    54    46   ar
    49    54    52   ar
    50    46    47   ar
    51    40    41    1
    52    40    57    1
    53    63    62    1
    54    52    53    1
    55    52    50   ar
    56    47    57    1
    57    47    48   ar
    58    57    42    1
    59    44    42    1
    60    62    64    1
    61    50    48   ar
    62    50    51    1
    63    48    49    1
    64    42    43    1
    65    42    45    1
