@<TRIPOS>MOLECULE
1,3-Bis(pyrimidin-2-ylsulfanyl)propan-2-one
 15 15 0 0 0
SMALL
GASTEIGER

@<TRIPOS>ATOM
      1 S           4.7816    0.5114   13.6681 S.3     1  LIG1       -0.0780
      2 O           3.9021    1.7843   16.3148 O.2     1  LIG1       -0.2881
      3 N           2.1742    0.1712   14.0844 N.ar    1  LIG1       -0.2303
      4 N           2.8790    1.1230   12.0029 N.ar    1  LIG1       -0.2303
      5 C           1.5967    1.2247   11.6587 C.ar    1  LIG1        0.0319
      6 C           0.5674    0.8318   12.4645 C.ar    1  LIG1       -0.0254
      7 C           0.9076    0.2978   13.6761 C.ar    1  LIG1        0.0319
      8 C           3.0834    0.5999   13.2171 C.ar    1  LIG1        0.1886
      9 C           4.6318   -0.2590   15.2800 C.3     1  LIG1        0.0671
     10 C           3.9021    0.5721   16.3148 C.2     1  LIG1        0.2090
     11 H           1.4438    1.6314   10.8547 H       1  LIG1        0.0831
     12 H          -0.3434    0.9145   12.1730 H       1  LIG1        0.0648
     13 H           0.2341   -0.0219   14.3483 H       1  LIG1        0.0831
     14 H           5.5332   -0.3877   15.6078 H       1  LIG1        0.0463
     15 H           4.1909   -1.1193   15.1901 H       1  LIG1        0.0463
@<TRIPOS>BOND
     1    11     5    1
     2     5     4   ar
     3     5     6   ar
     4     4     8   ar
     5    12     6    1
     6     6     7   ar
     7     8     1    1
     8     8     3   ar
     9     1     9    1
    10     7     3   ar
    11     7    13    1
    12    15     9    1
    13     9    14    1
    14     9    10    1
    15     2    10    2
