@<TRIPOS>MOLECULE
5-acetyl-4,6-dimethyl-1,2,3,4-tetrahydropyrimidin-2-one
 24 24 0 0 0
SMALL
GASTEIGER

@<TRIPOS>ATOM
      1 O           2.9045    5.0716    7.1502 O.2     1  LIG1       -0.2525
      2 O           0.6104   -0.0195    4.6697 O.2     1  LIG1       -0.2926
      3 N           1.0519    3.7696    7.3686 N.am    1  LIG1       -0.2730
      4 N           2.5618    3.3646    5.7036 N.am    1  LIG1       -0.2924
      5 C           2.2201    4.1335    6.7295 C.2     1  LIG1        0.3041
      6 C           1.6195    2.4779    5.0275 C.3     1  LIG1        0.0517
      7 C           0.6870    1.8532    6.0454 C.2     1  LIG1        0.0314
      8 C           0.1812    0.5237    5.6838 C.2     1  LIG1        0.1594
      9 C          -0.8530   -0.2119    6.4820 C.3     1  LIG1       -0.0016
     10 C           0.3957    2.5707    7.1559 C.2     1  LIG1        0.0171
     11 C           0.8601    3.2116    3.9351 C.3     1  LIG1       -0.0422
     12 C          -0.5766    2.2542    8.2563 C.3     1  LIG1       -0.0259
     13 H           0.8382    4.2454    8.0490 H       1  LIG1        0.1561
     14 H           3.2413    3.5669    5.2762 H       1  LIG1        0.1508
     15 H           2.1378    1.7835    4.6152 H       1  LIG1        0.0547
     16 H           1.4791    3.5599    3.2882 H       1  LIG1        0.0251
     17 H           0.2136    2.6437    3.5041 H       1  LIG1        0.0251
     18 H           0.3688    3.9796    4.3307 H       1  LIG1        0.0251
     19 H          -1.0449   -1.0281    5.9489 H       1  LIG1        0.0309
     20 H          -0.5426   -0.4266    7.3980 H       1  LIG1        0.0309
     21 H          -1.6722    0.3287    6.6216 H       1  LIG1        0.0309
     22 H          -0.3312    1.4897    8.7250 H       1  LIG1        0.0290
     23 H          -0.6747    3.0424    8.8488 H       1  LIG1        0.0290
     24 H          -1.4738    2.1611    7.9302 H       1  LIG1        0.0290
@<TRIPOS>BOND
     1    16    11    1
     2    17    11    1
     3    11    18    1
     4    11     6    1
     5    15     6    1
     6     2     8    2
     7     6     4    1
     8     6     7    1
     9    14     4    1
    10     8     7    1
    11     8     9    1
    12     4     5   am
    13    19     9    1
    14     7    10    2
    15     9    21    1
    16     9    20    1
    17     5     1    2
    18     5     3   am
    19    10     3    1
    20    10    12    1
    21     3    13    1
    22    24    12    1
    23    12    22    1
    24    12    23    1
