@<TRIPOS>MOLECULE
1-Carboxymethyl-2-(hydroxyquinolin-4-ylmethyl)-5-vinyl-1- azoniabicyclo[2.2.2]octane
 50 53 0 0 0
SMALL
GASTEIGER

@<TRIPOS>ATOM
      1 O           7.1182    1.7692    4.5171 O.3     1  LIG1       -0.3815
      2 H           7.6896    1.1820    4.4849 H       1  LIG1        0.2105
      3 O           2.6272    0.6732    4.8270 O.co2   1  LIG1       -0.2403
      4 O           3.5768   -0.5164    6.4550 O.co2   1  LIG1       -0.2403
      5 N           4.4715    2.8472    5.3225 N.4     1  LIG1        0.2559
      6 N           6.6983    0.5420   -0.3810 N.ar    1  LIG1       -0.2550
      7 C           4.9352    2.4782    3.9036 C.3     1  LIG1        0.0126
      8 H           4.1427    2.1740    3.4156 H       1  LIG1        0.0881
      9 C           5.4121    3.7616    3.2243 C.3     1  LIG1       -0.0031
     10 H           5.1542    3.7505    2.2891 H       1  LIG1        0.0324
     11 H           6.3799    3.8144    3.2710 H       1  LIG1        0.0324
     12 C           4.7962    4.9837    3.9150 C.3     1  LIG1       -0.0200
     13 H           4.9158    5.7873    3.3674 H       1  LIG1        0.0312
     14 C           3.3140    4.6990    4.1358 C.3     1  LIG1       -0.0087
     15 H           2.8656    5.5078    4.4307 H       1  LIG1        0.0320
     16 H           2.9073    4.4127    3.3042 H       1  LIG1        0.0320
     17 C           3.1576    3.6099    5.1879 C.3     1  LIG1       -0.0288
     18 H           2.4485    3.0006    4.9276 H       1  LIG1        0.0815
     19 H           2.9191    4.0079    6.0391 H       1  LIG1        0.0815
     20 C           5.4219    5.1746    5.2987 C.3     1  LIG1        0.0203
     21 H           4.8351    5.7592    5.8222 H       1  LIG1        0.0398
     22 C           5.4643    3.8017    5.9809 C.3     1  LIG1       -0.0225
     23 H           6.3597    3.4335    5.9156 H       1  LIG1        0.0821
     24 H           5.2460    3.8988    6.9216 H       1  LIG1        0.0821
     25 C           6.7865    5.7975    5.2547 C.2     1  LIG1       -0.0828
     26 H           7.4366    5.3493    4.7650 H       1  LIG1        0.0571
     27 C           7.1425    6.8841    5.8270 C.2     1  LIG1       -0.1022
     28 H           6.5272    7.3681    6.3282 H       1  LIG1        0.0532
     29 H           8.0164    7.1900    5.7409 H       1  LIG1        0.0532
     30 C           4.3109    1.6592    6.2348 C.3     1  LIG1        0.0737
     31 H           3.9682    1.9831    7.0812 H       1  LIG1        0.0935
     32 H           5.1945    1.2962    6.4035 H       1  LIG1        0.0935
     33 C           3.4127    0.5062    5.7803 C.2     1  LIG1        0.3998
     34 C           5.9648    1.3380    3.8388 C.3     1  LIG1        0.1233
     35 H           5.6012    0.5480    4.2921 H       1  LIG1        0.0701
     36 C           7.5554    1.1419    0.3928 C.ar    1  LIG1        0.0286
     37 H           8.3570    1.4164    0.0090 H       1  LIG1        0.0830
     38 C           7.3740    1.4112    1.7587 C.ar    1  LIG1       -0.0372
     39 H           8.0316    1.8595    2.2409 H       1  LIG1        0.0636
     40 C           6.2179    1.0047    2.3759 C.ar    1  LIG1       -0.0032
     41 C           5.2648    0.2872    1.5936 C.ar    1  LIG1        0.0062
     42 C           5.5421    0.0954    0.2157 C.ar    1  LIG1        0.0713
     43 C           4.5987   -0.5582   -0.5955 C.ar    1  LIG1       -0.0357
     44 H           4.7698   -0.6613   -1.5030 H       1  LIG1        0.0639
     45 C           3.4454   -1.0405   -0.0774 C.ar    1  LIG1       -0.0597
     46 H           2.8309   -1.4683   -0.6295 H       1  LIG1        0.0618
     47 C           3.1791   -0.8948    1.2819 C.ar    1  LIG1       -0.0611
     48 H           2.3943   -1.2468    1.6355 H       1  LIG1        0.0618
     49 C           4.0572   -0.2420    2.0997 C.ar    1  LIG1       -0.0522
     50 H           3.8570   -0.1440    3.0030 H       1  LIG1        0.0624
@<TRIPOS>BOND
     1    44    43    1
     2    46    45    1
     3    43    45   ar
     4    43    42   ar
     5     6    42   ar
     6     6    36   ar
     7    45    47   ar
     8    37    36    1
     9    42    41   ar
    10    36    38   ar
    11    47    48    1
    12    47    49   ar
    13    41    49   ar
    14    41    40   ar
    15    38    39    1
    16    38    40   ar
    17    49    50    1
    18    10     9    1
    19    40    34    1
    20     9    11    1
    21     9     7    1
    22     9    12    1
    23    16    14    1
    24    13    12    1
    25     8     7    1
    26    34     7    1
    27    34    35    1
    28    34     1    1
    29     7     5    1
    30    12    14    1
    31    12    20    1
    32    14    15    1
    33    14    17    1
    34     2     1    1
    35    26    25    1
    36     3    33   ar
    37    18    17    1
    38    17     5    1
    39    17    19    1
    40    25    20    1
    41    25    27    2
    42    20    21    1
    43    20    22    1
    44     5    22    1
    45     5    30    1
    46    29    27    1
    47    33    30    1
    48    33     4   ar
    49    27    28    1
    50    23    22    1
    51    22    24    1
    52    30    32    1
    53    30    31    1
