@<TRIPOS>MOLECULE
8,9-Dihydro-1,6-dimethylphenanthro[1,2-b]furan-10,11-dione
 35 38 0 0 0
SMALL
GASTEIGER

@<TRIPOS>ATOM
      1 O           7.0551    6.7783   14.9147 O.2     1  LIG1       -0.4619
      2 C           7.2178    6.5748   12.4923 C.ar    1  LIG1        0.0292
      3 C           7.7340    5.8255   11.4025 C.ar    1  LIG1        0.0400
      4 O           8.8904    3.8023   10.8779 O.2     1  LIG1       -0.2832
      5 C           7.4636    6.2372   10.0885 C.ar    1  LIG1       -0.0281
      6 C           6.6096    7.3544    9.8780 C.ar    1  LIG1       -0.0185
      7 C           8.3539    5.1124   14.2042 C.ar    1  LIG1        0.0741
      8 C           8.5394    4.6047   11.7115 C.2     1  LIG1        0.2340
      9 O           9.6349    3.3019   13.3964 O.2     1  LIG1       -0.2830
     10 C           6.1102    8.0536   10.9784 C.ar    1  LIG1       -0.0534
     11 H           5.5531    8.7847   10.8366 H       1  LIG1        0.0624
     12 C           6.4222    7.6884   12.2638 C.ar    1  LIG1       -0.0498
     13 H           6.1010    8.1860   12.9803 H       1  LIG1        0.0625
     14 C           7.5513    6.1451   13.8249 C.ar    1  LIG1        0.1466
     15 C           8.0219    5.5408    8.8692 C.3     1  LIG1       -0.0230
     16 H           7.4243    4.8216    8.6134 H       1  LIG1        0.0317
     17 H           8.8799    5.1480    9.0926 H       1  LIG1        0.0317
     18 C           8.9244    4.2620   13.1869 C.2     1  LIG1        0.2368
     19 C           6.2561    7.7625    8.5055 C.2     1  LIG1       -0.0469
     20 C           8.1987    6.4823    7.6923 C.3     1  LIG1       -0.0302
     21 H           8.9670    7.0531    7.8513 H       1  LIG1        0.0311
     22 H           8.3721    5.9643    6.8905 H       1  LIG1        0.0311
     23 C           6.9956    7.3284    7.4789 C.2     1  LIG1       -0.0802
     24 H           6.7510    7.5607    6.6123 H       1  LIG1        0.0575
     25 C           7.5836    6.1181   16.0022 C.ar    1  LIG1        0.0962
     26 H           7.4082    6.3497   16.8855 H       1  LIG1        0.1032
     27 C           8.3820    5.1000   15.6404 C.ar    1  LIG1       -0.0011
     28 C           5.0939    8.6839    8.2957 C.3     1  LIG1       -0.0394
     29 H           4.9880    8.8573    7.3569 H       1  LIG1        0.0278
     30 H           5.2530    9.5104    8.7584 H       1  LIG1        0.0278
     31 H           4.2951    8.2751    8.6368 H       1  LIG1        0.0278
     32 C           9.1342    4.1660   16.5332 C.3     1  LIG1       -0.0360
     33 H           8.9651    4.3940   17.4501 H       1  LIG1        0.0279
     34 H          10.0745    4.2396   16.3537 H       1  LIG1        0.0279
     35 H           8.8471    3.2652   16.3689 H       1  LIG1        0.0279
@<TRIPOS>BOND
     1    24    23    1
     2    22    20    1
     3    29    28    1
     4    23    20    1
     5    23    19    2
     6    20    21    1
     7    20    15    1
     8    28    19    1
     9    28    31    1
    10    28    30    1
    11    19     6    1
    12    16    15    1
    13    15    17    1
    14    15     5    1
    15     6     5   ar
    16     6    10   ar
    17     5     3   ar
    18    11    10    1
    19     4     8    2
    20    10    12   ar
    21     3     8    1
    22     3     2   ar
    23     8    18    1
    24    12     2   ar
    25    12    13    1
    26     2    14    1
    27    18     9    2
    28    18     7    1
    29    14     7   ar
    30    14     1   ar
    31     7    27   ar
    32     1    25   ar
    33    27    25   ar
    34    27    32    1
    35    25    26    1
    36    34    32    1
    37    35    32    1
    38    32    33    1
