@<TRIPOS>MOLECULE
3-{[(1Z)-(3-Methyl-5-oxo-1-phenyl-1,5-dihydropyrazol-4- ylidene)(phenyl)methyl]amino}propionic acid
 45 47 0 0 0
SMALL
GASTEIGER

@<TRIPOS>ATOM
      1 N           2.8865    8.0841    0.3578 N.2     1  LIG1       -0.2426
      2 H           3.4784    7.4213    0.1432 H       1  LIG1        0.4453
      3 N           2.1365    4.1793    1.4448 N.am    1  LIG1       -0.1596
      4 N           0.8703    4.3518    2.0203 N.2     1  LIG1       -0.1802
      5 O           4.9934    8.0750   -1.6809 O.2     1  LIG1       -0.2508
      6 O           4.1006    9.0314   -3.4693 O.3     1  LIG1       -0.4805
      7 H           4.6129    8.4995   -3.8812 H       1  LIG1        0.2951
      8 O           3.7442    5.5323    0.4246 O.2     1  LIG1       -0.2718
      9 C           4.2367    8.8680   -2.1694 C.2     1  LIG1        0.3108
     10 C           3.3439    9.7703   -1.3654 C.3     1  LIG1        0.1036
     11 H           2.4360    9.6948   -1.6976 H       1  LIG1        0.0440
     12 H           3.6303   10.6888   -1.4870 H       1  LIG1        0.0440
     13 C           3.3587    9.4405    0.1073 C.3     1  LIG1        0.1534
     14 H           4.2632    9.5333    0.4475 H       1  LIG1        0.1030
     15 H           2.7930   10.0694    0.5824 H       1  LIG1        0.1030
     16 C           1.8034    7.7138    1.0093 C.2     1  LIG1        0.2071
     17 C           1.6077    6.3436    1.2588 C.3     1  LIG1        0.2006
     18 C           2.6322    5.3729    0.9620 C.2     1  LIG1        0.2634
     19 C           0.5626    5.6247    1.9011 C.2     1  LIG1        0.0616
     20 C          -0.7630    6.1025    2.4046 C.3     1  LIG1       -0.0231
     21 H          -1.3371    5.3491    2.5622 H       1  LIG1        0.0290
     22 H          -1.1660    6.6790    1.7513 H       1  LIG1        0.0290
     23 H          -0.6387    6.5865    3.2245 H       1  LIG1        0.0290
     24 C           0.8658    8.7691    1.4955 C.ar    1  LIG1        0.0427
     25 C           0.0369    9.4419    0.6260 C.ar    1  LIG1       -0.0486
     26 H           0.0342    9.2183   -0.2767 H       1  LIG1        0.0625
     27 C          -0.7893   10.4479    1.0907 C.ar    1  LIG1       -0.0610
     28 H          -1.3617   10.8890    0.5039 H       1  LIG1        0.0618
     29 C          -0.7680   10.7953    2.4105 C.ar    1  LIG1       -0.0617
     30 H          -1.3125   11.4825    2.7192 H       1  LIG1        0.0618
     31 C           0.0526   10.1359    3.2757 C.ar    1  LIG1       -0.0610
     32 H           0.0634   10.3738    4.1745 H       1  LIG1        0.0618
     33 C           0.8688    9.1134    2.8234 C.ar    1  LIG1       -0.0486
     34 H           1.4205    8.6599    3.4200 H       1  LIG1        0.0625
     35 C           2.8138    2.9383    1.5486 C.ar    1  LIG1        0.0600
     36 C           3.8200    2.6161    0.6512 C.ar    1  LIG1       -0.0384
     37 H           4.0269    3.1938   -0.0482 H       1  LIG1        0.0637
     38 C           4.5169    1.4238    0.8052 C.ar    1  LIG1       -0.0599
     39 H           5.2064    1.2152    0.2162 H       1  LIG1        0.0618
     40 C           4.2010    0.5521    1.8141 C.ar    1  LIG1       -0.0616
     41 H           4.6809   -0.2377    1.9179 H       1  LIG1        0.0618
     42 C           3.1767    0.8514    2.6647 C.ar    1  LIG1       -0.0599
     43 H           2.9357    0.2423    3.3250 H       1  LIG1        0.0618
     44 C           2.4903    2.0542    2.5556 C.ar    1  LIG1       -0.0384
     45 H           1.8144    2.2619    3.1598 H       1  LIG1        0.0637
@<TRIPOS>BOND
     1     7     6    1
     2     6     9    1
     3     9     5    2
     4     9    10    1
     5    11    10    1
     6    12    10    1
     7    10    13    1
     8    26    25    1
     9    37    36    1
    10    13     1    1
    11    13    14    1
    12    13    15    1
    13     2     1    1
    14    39    38    1
    15     1    16    2
    16     8    18    2
    17    28    27    1
    18    25    27   ar
    19    25    24   ar
    20    36    38   ar
    21    36    35   ar
    22    38    40   ar
    23    18    17    1
    24    18     3   am
    25    16    17    1
    26    16    24    1
    27    27    29   ar
    28    17    19    1
    29     3    35    1
    30     3     4    1
    31    24    33   ar
    32    35    44   ar
    33    22    20    1
    34    40    41    1
    35    40    42   ar
    36    19     4    2
    37    19    20    1
    38    20    21    1
    39    20    23    1
    40    29    30    1
    41    29    31   ar
    42    44    42   ar
    43    44    45    1
    44    42    43    1
    45    33    31   ar
    46    33    34    1
    47    31    32    1
