@<TRIPOS>MOLECULE
21-Acetoxy-17\a-4-pregnene-3,20-dione
 59 62 0 0 0
SMALL
GASTEIGER

@<TRIPOS>ATOM
      1 C           1.0543    0.3726   12.3254 C.3     1  LIG1       -0.0367
      2 H           0.8789    0.7077   11.4319 H       1  LIG1        0.0278
      3 H           1.9385    0.6751   12.5855 H       1  LIG1        0.0278
      4 C           1.0429   -1.1457   12.2943 C.3     1  LIG1        0.0107
      5 H           1.6812   -1.4578   11.6341 H       1  LIG1        0.0345
      6 H           1.3169   -1.4868   13.1590 H       1  LIG1        0.0345
      7 C          -0.2968   -1.6695   11.9640 C.2     1  LIG1        0.1561
      8 O          -0.4493   -2.7620   11.4468 O.2     1  LIG1       -0.2927
      9 C          -1.4231   -0.8469   12.3477 C.2     1  LIG1       -0.0194
     10 H          -2.2747   -1.1578   12.1387 H       1  LIG1        0.0652
     11 C          -1.3275    0.3387   12.9858 C.2     1  LIG1       -0.0601
     12 C          -2.5222    1.0356   13.5369 C.3     1  LIG1       -0.0305
     13 H          -2.5464    0.9110   14.4971 H       1  LIG1        0.0310
     14 H          -3.3229    0.6339   13.1634 H       1  LIG1        0.0310
     15 C          -2.5229    2.5442   13.2234 C.3     1  LIG1       -0.0459
     16 H          -2.5927    2.6797   12.2654 H       1  LIG1        0.0271
     17 H          -3.2880    2.9652   13.6458 H       1  LIG1        0.0271
     18 C          -1.2364    3.1806   13.7398 C.3     1  LIG1       -0.0338
     19 H          -1.1749    3.0378   14.7083 H       1  LIG1        0.0307
     20 C          -0.0478    2.5055   13.0607 C.3     1  LIG1       -0.0288
     21 H          -0.1852    2.6289   12.0987 H       1  LIG1        0.0312
     22 C           0.0281    0.9654   13.2837 C.3     1  LIG1       -0.0072
     23 C           1.2812    3.2011   13.3857 C.3     1  LIG1       -0.0486
     24 H           1.5195    3.0051   14.3037 H       1  LIG1        0.0268
     25 H           1.9742    2.8309   12.8167 H       1  LIG1        0.0268
     26 C           1.2516    4.7134   13.1990 C.3     1  LIG1       -0.0464
     27 H           1.1605    4.9190   12.2565 H       1  LIG1        0.0271
     28 H           2.0895    5.0908   13.5102 H       1  LIG1        0.0271
     29 C           0.1002    5.3437   13.9674 C.3     1  LIG1       -0.0194
     30 C          -1.1787    4.6771   13.4533 C.3     1  LIG1       -0.0318
     31 H          -1.1605    4.7678   12.4788 H       1  LIG1        0.0309
     32 C          -2.3020    5.5832   13.9414 C.3     1  LIG1       -0.0488
     33 H          -2.5745    5.3388   14.8416 H       1  LIG1        0.0268
     34 H          -3.0717    5.5239   13.3546 H       1  LIG1        0.0268
     35 C          -1.7085    6.9926   13.9192 C.3     1  LIG1       -0.0426
     36 H          -1.8375    7.4270   14.7772 H       1  LIG1        0.0272
     37 H          -2.1366    7.5286   13.2323 H       1  LIG1        0.0272
     38 C          -0.1996    6.8366   13.6169 C.3     1  LIG1        0.0266
     39 H          -0.0736    6.9491   12.6522 H       1  LIG1        0.0384
     40 C           0.2839    5.2106   15.4718 C.3     1  LIG1       -0.0587
     41 H           0.3309    4.2815   15.7085 H       1  LIG1        0.0235
     42 H          -0.4592    5.6183   15.9219 H       1  LIG1        0.0235
     43 H           1.0968    5.6498   15.7352 H       1  LIG1        0.0235
     44 C           0.3757    0.6206   14.7427 C.3     1  LIG1       -0.0556
     45 H          -0.2710    1.0211   15.3284 H       1  LIG1        0.0238
     46 H           1.2501    0.9582   14.9528 H       1  LIG1        0.0238
     47 H           0.3643   -0.3327   14.8572 H       1  LIG1        0.0238
     48 C           0.6467    7.8589   14.3115 C.2     1  LIG1        0.1740
     49 O           0.2527    8.6114   15.1704 O.2     1  LIG1       -0.2935
     50 C           2.0971    7.9327   13.8436 C.3     1  LIG1        0.1504
     51 H           2.5328    7.0882   14.0370 H       1  LIG1        0.0778
     52 H           2.1115    8.0597   12.8833 H       1  LIG1        0.0778
     53 O           2.8341    8.9816   14.4578 O.3     1  LIG1       -0.4571
     54 C           3.3335    8.7360   15.6841 C.2     1  LIG1        0.3043
     55 O           3.1688    7.6871   16.2356 O.2     1  LIG1       -0.2512
     56 C           4.1274    9.8937   16.1642 C.3     1  LIG1        0.0332
     57 H           4.2398    9.8320   17.1156 H       1  LIG1        0.0342
     58 H           3.6675   10.7091   15.9486 H       1  LIG1        0.0342
     59 H           4.9881    9.8913   15.7396 H       1  LIG1        0.0342
@<TRIPOS>BOND
     1     2     1    1
     2     8     7    2
     3     5     4    1
     4     7     4    1
     5     7     9    1
     6    21    20    1
     7    10     9    1
     8    27    26    1
     9    16    15    1
    10     4     1    1
    11     4     6    1
    12     1     3    1
    13     1    22    1
    14     9    11    2
    15    31    30    1
    16    39    38    1
    17    25    23    1
    18    52    50    1
    19    11    22    1
    20    11    12    1
    21    20    22    1
    22    20    23    1
    23    20    18    1
    24    14    12    1
    25    26    23    1
    26    26    28    1
    27    26    29    1
    28    15    12    1
    29    15    17    1
    30    15    18    1
    31    37    35    1
    32    22    44    1
    33    34    32    1
    34    23    24    1
    35    30    18    1
    36    30    32    1
    37    30    29    1
    38    12    13    1
    39    38    35    1
    40    38    29    1
    41    38    48    1
    42    18    19    1
    43    50    51    1
    44    50    48    1
    45    50    53    1
    46    35    32    1
    47    35    36    1
    48    32    33    1
    49    29    40    1
    50    48    49    2
    51    53    54    1
    52    44    47    1
    53    44    46    1
    54    44    45    1
    55    40    41    1
    56    40    43    1
    57    40    42    1
    58    54    56    1
    59    54    55    2
    60    59    56    1
    61    58    56    1
    62    56    57    1
