@<TRIPOS>MOLECULE
Benzoin thiosemicarbazone
 35 36 0 0 0
SMALL
GASTEIGER

@<TRIPOS>ATOM
      1 S          -0.5523   14.0664    6.3389 S.2     1  LIG1       -0.0174
      2 O           3.3020   11.8109    5.5667 O.3     1  LIG1       -0.3809
      3 H           3.7684   12.4407    5.8067 H       1  LIG1        0.2108
      4 N           2.1184   11.9803    8.2495 N.2     1  LIG1       -0.1821
      5 N           1.3393   12.5037    7.2448 N.am    1  LIG1       -0.2182
      6 H           1.4931   12.3073    6.4224 H       1  LIG1        0.1762
      7 N           0.1002   13.5129    8.8572 N.am    1  LIG1       -0.3394
      8 H           0.5859   13.1117    9.4427 H       1  LIG1        0.1440
      9 H          -0.5359   14.0333    9.1092 H       1  LIG1        0.1440
     10 C           3.0744   11.1828    7.9299 C.2     1  LIG1        0.0991
     11 C           0.3307   13.3293    7.5779 C.2     1  LIG1        0.1473
     12 C           3.4231   10.7389    6.5120 C.3     1  LIG1        0.1240
     13 H           4.3550   10.4349    6.5087 H       1  LIG1        0.0710
     14 C           3.8678   10.6549    9.0622 C.ar    1  LIG1        0.0006
     15 C           4.5872    9.4730    8.9475 C.ar    1  LIG1       -0.0527
     16 H           4.5579    8.9917    8.1516 H       1  LIG1        0.0624
     17 C           5.3431    9.0040    9.9998 C.ar    1  LIG1       -0.0611
     18 H           5.8189    8.2093    9.9124 H       1  LIG1        0.0618
     19 C           5.3936    9.7089   11.1794 C.ar    1  LIG1       -0.0617
     20 H           5.9209    9.4034   11.8822 H       1  LIG1        0.0618
     21 C           4.6687   10.8595   11.3177 C.ar    1  LIG1       -0.0611
     22 H           4.6851   11.3228   12.1245 H       1  LIG1        0.0618
     23 C           3.9133   11.3362   10.2693 C.ar    1  LIG1       -0.0527
     24 H           3.4281   12.1227   10.3721 H       1  LIG1        0.0624
     25 C           2.5592    9.6021    6.0160 C.ar    1  LIG1       -0.0132
     26 C           1.4992    9.0910    6.7158 C.ar    1  LIG1       -0.0558
     27 H           1.2927    9.4415    7.5525 H       1  LIG1        0.0621
     28 C           0.7325    8.0654    6.2038 C.ar    1  LIG1       -0.0614
     29 H           0.0123    7.7390    6.6929 H       1  LIG1        0.0618
     30 C           1.0211    7.5283    4.9907 C.ar    1  LIG1       -0.0617
     31 H           0.4962    6.8423    4.6450 H       1  LIG1        0.0618
     32 C           2.0801    7.9983    4.2861 C.ar    1  LIG1       -0.0614
     33 H           2.2853    7.6247    3.4601 H       1  LIG1        0.0618
     34 C           2.8596    9.0280    4.7846 C.ar    1  LIG1       -0.0558
     35 H           3.5865    9.3375    4.2949 H       1  LIG1        0.0621
@<TRIPOS>BOND
     1    33    32    1
     2    32    34   ar
     3    32    30   ar
     4    35    34    1
     5    31    30    1
     6    34    25   ar
     7    30    28   ar
     8     2     3    1
     9     2    12    1
    10    25    12    1
    11    25    26   ar
    12    28    29    1
    13    28    26   ar
    14     1    11    2
    15     6     5    1
    16    13    12    1
    17    12    10    1
    18    26    27    1
    19     5    11    1
    20     5     4    1
    21    11     7    1
    22    10     4    2
    23    10    14    1
    24    16    15    1
    25     7     9    1
    26     7     8    1
    27    15    14   ar
    28    15    17   ar
    29    14    23   ar
    30    18    17    1
    31    17    19   ar
    32    23    24    1
    33    23    21   ar
    34    19    21   ar
    35    19    20    1
    36    21    22    1
