@<TRIPOS>MOLECULE
Naphthalene-1,4,5,8-tetracarboxylic 1,8-anhydride
 27 29 0 0 0
SMALL
GASTEIGER

@<TRIPOS>ATOM
      1 O           2.6139   11.3273    9.6381 O.2     1  LIG1       -0.2444
      2 C           2.7329    9.1619    8.6759 C.ar    1  LIG1        0.0680
      3 O           2.8128   11.2707    7.4437 O.3     1  LIG1       -0.3860
      4 C           2.6100    8.5055    9.8719 C.ar    1  LIG1       -0.0463
      5 H           2.4848    8.9951   10.6759 H       1  LIG1        0.0626
      6 O           3.1915   11.3195    5.2812 O.2     1  LIG1       -0.2444
      7 C           2.6692    7.0990    9.8977 C.ar    1  LIG1       -0.0464
      8 H           2.6039    6.6434   10.7290 H       1  LIG1        0.0626
      9 O           4.0679    4.3903    8.3223 O.2     1  LIG1       -0.2451
     10 C           2.8197    6.3752    8.7405 C.ar    1  LIG1        0.0674
     11 O           2.2959    4.2898    9.6871 O.3     1  LIG1       -0.4771
     12 H           2.4457    3.4636    9.6680 H       1  LIG1        0.2954
     13 C           2.9672    6.3645    6.2022 C.ar    1  LIG1        0.0674
     14 O           1.6745    4.3971    6.5511 O.2     1  LIG1       -0.2451
     15 C           3.1531    7.0775    5.0494 C.ar    1  LIG1       -0.0464
     16 H           3.2522    6.6152    4.2267 H       1  LIG1        0.0626
     17 O           3.5479    4.2518    5.3339 O.3     1  LIG1       -0.4771
     18 H           3.4173    3.4237    5.3939 H       1  LIG1        0.2954
     19 C           3.2007    8.4899    5.0608 C.ar    1  LIG1       -0.0463
     20 H           3.3497    8.9708    4.2554 H       1  LIG1        0.0626
     21 C           3.0310    9.1580    6.2439 C.ar    1  LIG1        0.0680
     22 C           2.8766    8.4548    7.4599 C.ar    1  LIG1        0.0116
     23 C           2.8804    7.0326    7.4699 C.ar    1  LIG1        0.0116
     24 C           2.7245   10.6377    8.6558 C.2     1  LIG1        0.3474
     25 C           3.0240   10.6221    6.2510 C.2     1  LIG1        0.3474
     26 C           3.0970    4.8926    8.8698 C.2     1  LIG1        0.3374
     27 C           2.6684    4.8877    6.0687 C.2     1  LIG1        0.3374
@<TRIPOS>BOND
     1    16    15    1
     2    20    19    1
     3    15    19   ar
     4    15    13   ar
     5    19    21   ar
     6     6    25    2
     7    17    18    1
     8    17    27    1
     9    27    13    1
    10    27    14    2
    11    13    23   ar
    12    21    25    1
    13    21    22   ar
    14    25     3    1
    15     3    24    1
    16    22    23   ar
    17    22     2   ar
    18    23    10   ar
    19     9    26    2
    20    24     2    1
    21    24     1    2
    22     2     4   ar
    23    10    26    1
    24    10     7   ar
    25    26    11    1
    26    12    11    1
    27     4     7   ar
    28     4     5    1
    29     7     8    1
