@<TRIPOS>MOLECULE
Acetonyl morpholine-4-carbodithioate
 26 26 0 0 0
SMALL
GASTEIGER

@<TRIPOS>ATOM
      1 S           7.9448   -2.0081   -3.9980 S.3     1  LIG1       -0.0950
      2 S           7.0500   -2.7704   -6.7641 S.2     1  LIG1       -0.0279
      3 O           3.6561   -4.6909   -3.2634 O.3     1  LIG1       -0.3767
      4 N           5.9413   -3.5965   -4.4996 N.am    1  LIG1       -0.3146
      5 C          10.0350   -1.7030   -5.8282 C.2     1  LIG1        0.1404
      6 O          10.4914   -2.7502   -5.4545 O.2     1  LIG1       -0.2968
      7 C           5.8645   -3.7890   -3.0413 C.3     1  LIG1        0.0366
      8 H           6.3725   -3.0945   -2.5933 H       1  LIG1        0.0487
      9 H           6.2512   -4.6467   -2.8050 H       1  LIG1        0.0487
     10 C           4.4428   -3.7384   -2.5944 C.3     1  LIG1        0.0634
     11 H           4.4017   -3.9020   -1.6398 H       1  LIG1        0.0575
     12 H           4.0850   -2.8523   -2.7624 H       1  LIG1        0.0575
     13 C           3.6535   -4.4055   -4.6552 C.3     1  LIG1        0.0634
     14 H           3.2820   -3.5208   -4.7973 H       1  LIG1        0.0575
     15 H           3.0825   -5.0445   -5.1099 H       1  LIG1        0.0575
     16 C           5.0189   -4.4639   -5.2480 C.3     1  LIG1        0.0366
     17 H           5.3443   -5.3775   -5.2278 H       1  LIG1        0.0487
     18 H           4.9832   -4.1776   -6.1742 H       1  LIG1        0.0487
     19 C           6.8760   -2.8794   -5.1163 C.2     1  LIG1        0.1097
     20 C           8.9114   -1.0001   -5.1068 C.3     1  LIG1        0.0581
     21 H           8.3153   -0.6194   -5.7706 H       1  LIG1        0.0458
     22 H           9.2886   -0.2648   -4.5998 H       1  LIG1        0.0458
     23 C          10.5633   -0.9755   -7.0096 C.3     1  LIG1       -0.0052
     24 H          11.2699   -1.4868   -7.4105 H       1  LIG1        0.0306
     25 H          10.9041   -0.1213   -6.7327 H       1  LIG1        0.0306
     26 H           9.8595   -0.8478   -7.6492 H       1  LIG1        0.0306
@<TRIPOS>BOND
     1    26    23    1
     2    24    23    1
     3    23    25    1
     4    23     5    1
     5     2    19    2
     6    18    16    1
     7     5     6    2
     8     5    20    1
     9    21    20    1
    10    16    17    1
    11    16    13    1
    12    16     4    1
    13    19     4    1
    14    19     1    1
    15    15    13    1
    16    20    22    1
    17    20     1    1
    18    14    13    1
    19    13     3    1
    20     4     7    1
    21     3    10    1
    22     7     9    1
    23     7    10    1
    24     7     8    1
    25    12    10    1
    26    10    11    1
