@<TRIPOS>MOLECULE
2,5-Dibenzoylterephthalic acid ethanol disolvate
 30 29 0 0 0
SMALL
GASTEIGER

@<TRIPOS>ATOM
      1 O           2.2255    1.3788    3.2561 O.3     1  LIG1       -0.4799
      2 O           2.9774   -0.6879    3.5779 O.2     1  LIG1       -0.2499
      3 O           5.7790   -0.3197    2.3244 O.2     1  LIG1       -0.2870
      4 O           1.6522    1.5735    5.7469 O.3     1  LIG1       -0.3953
      5 C           4.0772   -0.7661   -0.5105 C.2     1  LIG1       -0.0534
      6 H           4.7660   -1.2863   -0.8567 H       1  LIG1        0.0622
      7 C           3.9696   -0.6077    0.8637 C.2     1  LIG1        0.0195
      8 C           2.9269    0.1602    1.3825 C.3     1  LIG1        0.1382
      9 C           2.7204    0.2427    2.8532 C.2     1  LIG1        0.3184
     10 C           5.0821   -1.1199    1.7452 C.2     1  LIG1        0.1903
     11 C           5.3296   -2.5712    1.7956 C.ar    1  LIG1        0.0220
     12 C           4.3640   -3.4854    1.4185 C.ar    1  LIG1       -0.0509
     13 H           3.5537   -3.1871    1.0737 H       1  LIG1        0.0625
     14 C           4.5960   -4.8341    1.5484 C.ar    1  LIG1       -0.0611
     15 H           3.9379   -5.4458    1.3088 H       1  LIG1        0.0618
     16 C           5.8039   -5.2762    2.0356 C.ar    1  LIG1       -0.0617
     17 H           5.9658   -6.1880    2.1136 H       1  LIG1        0.0618
     18 C           6.7708   -4.3785    2.4052 C.ar    1  LIG1       -0.0611
     19 H           7.5843   -4.6880    2.7318 H       1  LIG1        0.0618
     20 C           6.5524   -3.0252    2.3001 C.ar    1  LIG1       -0.0509
     21 H           7.2087   -2.4206    2.5611 H       1  LIG1        0.0625
     22 C          -0.7659    1.4999    5.5959 C.3     1  LIG1       -0.0418
     23 H          -1.5553    2.0266    5.7428 H       1  LIG1        0.0252
     24 H          -0.8020    0.7113    6.1418 H       1  LIG1        0.0252
     25 H          -0.7174    1.2465    4.6713 H       1  LIG1        0.0252
     26 C           0.4225    2.2881    5.9519 C.3     1  LIG1        0.0414
     27 H           0.4358    3.0980    5.4173 H       1  LIG1        0.0554
     28 H           0.3609    2.5495    6.8832 H       1  LIG1        0.0554
     29 H           1.6612    0.7362    6.3181 H       1  LIG1        0.2094
     30 H           2.0568    1.3171    4.3176 H       1  LIG1        0.2951
@<TRIPOS>BOND
     1     6     5    1
     2     5     7    2
     3     7     8    1
     4     7    10    1
     5    13    12    1
     6    15    14    1
     7     8     9    1
     8    12    14   ar
     9    12    11   ar
    10    14    16   ar
    11    10    11    1
    12    10     3    2
    13    11    20   ar
    14    16    17    1
    15    16    18   ar
    16    20    18   ar
    17    20    21    1
    18    18    19    1
    19     9     1    1
    20     9     2    2
    21     1    30    1
    22    25    22    1
    23    27    26    1
    24    22    23    1
    25    22    26    1
    26    22    24    1
    27     4    26    1
    28     4    29    1
    29    26    28    1
