@<TRIPOS>MOLECULE
5,6-dihydrothieno[2,3-d][1,3]dithiol-2-one
 13 14 0 0 0
SMALL
GASTEIGER

@<TRIPOS>ATOM
      1 C           3.3734    4.1415    3.5674 C.ar    1  LIG1        0.2559
      2 S           2.9582    5.1080    5.0047 S.2     1  LIG1       -0.0326
      3 S           2.8505    2.4510    3.6943 S.2     1  LIG1       -0.0430
      4 S           1.7177    3.8514    7.5326 S.3     1  LIG1       -0.1169
      5 C           2.2465    3.7912    5.8755 C.ar    1  LIG1        0.0589
      6 C           2.1899    2.5888    5.2937 C.ar    1  LIG1        0.0147
      7 C           1.6611    1.4166    6.1753 C.3     1  LIG1       -0.0104
      8 H           0.9503    0.9325    5.7268 H       1  LIG1        0.0327
      9 H           2.3731    0.7986    6.4028 H       1  LIG1        0.0327
     10 C           1.1342    2.1483    7.4280 C.3     1  LIG1        0.0033
     11 H           1.4193    1.6664    8.2204 H       1  LIG1        0.0383
     12 H           0.1642    2.1449    7.4118 H       1  LIG1        0.0383
     13 O           3.9513    4.5943    2.6184 O.2     1  LIG1       -0.2720
@<TRIPOS>BOND
     1    13     1    2
     2     1     3   ar
     3     1     2   ar
     4     3     6   ar
     5     2     5   ar
     6     6     5   ar
     7     6     7    1
     8     8     7    1
     9     5     4    1
    10     7     9    1
    11     7    10    1
    12    12    10    1
    13    10     4    1
    14    10    11    1
