@<TRIPOS>MOLECULE
Dimethylamino proylammonium dipicrate
 59 58 0 0 0
SMALL
GASTEIGER

@<TRIPOS>ATOM
      1 O          -0.2762    8.9448    5.5180 O.2     1  LIG1       -0.2870
      2 O          -1.7775    8.5813    7.6732 O.2     1  LIG1       -0.1303
      3 O          -0.9099    7.7470    9.3924 O.2     1  LIG1       -0.1303
      4 O           3.8188    7.6229   10.0258 O.2     1  LIG1       -0.1261
      5 O           5.1315    8.3313    8.4704 O.2     1  LIG1       -0.1261
      6 O           3.4063    8.7218    4.0437 O.2     1  LIG1       -0.1260
      7 O           1.6432    9.9183    3.9041 O.2     1  LIG1       -0.1260
      8 N          -0.8036    8.2005    8.2801 N.pl3   1  LIG1        0.0437
      9 N           4.0115    8.0538    8.9033 N.pl3   1  LIG1        0.0563
     10 N           2.3683    9.1433    4.5094 N.pl3   1  LIG1        0.0600
     11 C           0.6569    8.7253    6.3011 C.2     1  LIG1        0.2256
     12 C           0.5183    8.3451    7.6912 C.3     1  LIG1        0.2449
     13 C           1.6020    8.1275    8.5219 C.2     1  LIG1       -0.0108
     14 C           2.8692    8.2469    8.0328 C.2     1  LIG1        0.1275
     15 C           3.1066    8.5559    6.7068 C.2     1  LIG1        0.0021
     16 C           2.0434    8.7994    5.8885 C.2     1  LIG1        0.1735
     17 H           1.3648    7.9630    9.3058 H       1  LIG1        0.0626
     18 H           3.9923    8.6021    6.3417 H       1  LIG1        0.0664
     19 O           2.5069   12.7604   -2.7262 O.2     2  LIG2       -0.2870
     20 O           1.2521   12.7513   -0.3112 O.2     2  LIG2       -0.1303
     21 O           2.0275   11.2609    0.9711 O.2     2  LIG2       -0.1303
     22 O           6.7609   11.2628    1.5749 O.2     2  LIG2       -0.1261
     23 O           8.0474   11.5750   -0.1193 O.2     2  LIG2       -0.1261
     24 O           6.1141   12.2217   -4.4337 O.2     2  LIG2       -0.1260
     25 O           4.3890   13.4982   -4.5273 O.2     2  LIG2       -0.1260
     26 N           2.1521   12.0318    0.0351 N.pl3   2  LIG2        0.0437
     27 N           6.9378   11.5176    0.4002 N.pl3   2  LIG2        0.0563
     28 N           5.1329   12.7362   -3.9251 N.pl3   2  LIG2        0.0600
     29 C           3.5082   12.4819   -2.0273 C.2     2  LIG2        0.2256
     30 C           3.4420   12.0990   -0.6349 C.3     2  LIG2        0.2449
     31 C           4.5285   11.7686    0.1420 C.2     2  LIG2       -0.0108
     32 C           5.7808   11.7991   -0.4236 C.2     2  LIG2        0.1275
     33 C           5.9566   12.1125   -1.7652 C.2     2  LIG2        0.0021
     34 C           4.8611   12.4363   -2.5211 C.2     2  LIG2        0.1735
     35 H           4.3923   11.5224    0.9984 H       2  LIG2        0.0626
     36 H           6.7736   12.1292   -2.1061 H       2  LIG2        0.0664
     37 N          -0.4025   12.3686    2.3869 N.4     3  LIG3        0.2187
     38 H           0.1687   12.4150    1.7239 H       3  LIG3        0.1994
     39 H           0.0170   12.4851    3.2450 H       3  LIG3        0.1994
     40 H          -1.0770   13.0325    2.3245 H       3  LIG3        0.1994
     41 N          -2.8680    8.9618    4.9384 N.4     3  LIG3        0.2310
     42 H          -2.1701    8.9796    5.4837 H       3  LIG3        0.2028
     43 C          -0.9930   11.0015    2.3581 C.3     3  LIG3       -0.0305
     44 H          -0.2697   10.2497    2.3557 H       3  LIG3        0.0815
     45 H          -1.5428   10.8699    1.5133 H       3  LIG3        0.0815
     46 C          -1.8634   10.7968    3.5765 C.3     3  LIG3        0.0275
     47 H          -1.2995   10.9103    4.3292 H       3  LIG3        0.0369
     48 H          -2.5983   11.4523    3.6272 H       3  LIG3        0.0369
     49 C          -2.4156    9.3857    3.5741 C.3     3  LIG3       -0.0275
     50 H          -3.1876    9.3247    3.0265 H       3  LIG3        0.0816
     51 H          -1.7778    8.7450    3.3074 H       3  LIG3        0.0816
     52 C          -3.9332    9.8161    5.4774 C.3     3  LIG3       -0.0433
     53 H          -4.1846    9.5027    6.3495 H       3  LIG3        0.0777
     54 H          -4.6947    9.7832    4.8940 H       3  LIG3        0.0777
     55 H          -3.6173   10.7189    5.5422 H       3  LIG3        0.0777
     56 C          -3.2743    7.5345    4.9244 C.3     3  LIG3       -0.0433
     57 H          -3.5615    7.2753    5.8035 H       3  LIG3        0.0777
     58 H          -2.5289    6.9922    4.6576 H       3  LIG3        0.0777
     59 H          -3.9965    7.4129    4.3035 H       3  LIG3        0.0777
@<TRIPOS>BOND
     1    25    28    2
     2    24    28    2
     3    28    34    1
     4    19    29    2
     5    34    29    1
     6    34    33    2
     7    36    33    1
     8    29    30    1
     9    33    32    1
    10    30    26    1
    11    30    31    1
    12    32    31    2
    13    32    27    1
    14    20    26    2
    15    23    27    2
    16    26    21    2
    17    31    35    1
    18    27    22    2
    19    45    43    1
    20    38    37    1
    21    40    37    1
    22    44    43    1
    23    43    37    1
    24    43    46    1
    25    37    39    1
    26    50    49    1
    27    51    49    1
    28    49    46    1
    29    49    41    1
    30    46    48    1
    31    46    47    1
    32     7    10    2
    33     6    10    2
    34    59    56    1
    35    10    16    1
    36    58    56    1
    37    54    52    1
    38    56    41    1
    39    56    57    1
    40    41    52    1
    41    41    42    1
    42    52    55    1
    43    52    53    1
    44     1    11    2
    45    16    11    1
    46    16    15    2
    47    11    12    1
    48    18    15    1
    49    15    14    1
    50     2     8    2
    51    12     8    1
    52    12    13    1
    53    14    13    2
    54    14     9    1
    55     8     3    2
    56     5     9    2
    57    13    17    1
    58     9     4    2
