@<TRIPOS>MOLECULE
(E)-5-(4-Chlorophenyldiazenyl)salicylaldehyde
 27 28 0 0 0
SMALL
GASTEIGER

@<TRIPOS>ATOM
      1 C           0.4152    4.7103   22.6456 C.ar    1  LIG1        0.0574
      2 C          -0.1393    5.9629   22.2954 C.ar    1  LIG1        0.1272
      3 C          -0.1729    6.3451   20.9540 C.ar    1  LIG1       -0.0176
      4 H          -0.5300    7.1707   20.7173 H       1  LIG1        0.0655
      5 C           0.3177    5.5091   19.9859 C.ar    1  LIG1       -0.0337
      6 H           0.2858    5.7732   19.0949 H       1  LIG1        0.0638
      7 C           0.8692    4.2570   20.3173 C.ar    1  LIG1        0.0733
      8 C           0.9140    3.8777   21.6404 C.ar    1  LIG1       -0.0235
      9 H           1.2821    3.0544   21.8692 H       1  LIG1        0.0645
     10 C           0.4490    4.2617   24.0266 C.2     1  LIG1        0.1538
     11 H           0.8410    3.4373   24.2036 H       1  LIG1        0.1083
     12 C           1.7361    2.8153   17.1933 C.ar    1  LIG1        0.0725
     13 C           1.5937    3.1976   15.8631 C.ar    1  LIG1       -0.0358
     14 H           1.1991    4.0156   15.6619 H       1  LIG1        0.0638
     15 C           2.0275    2.3848   14.8421 C.ar    1  LIG1       -0.0415
     16 H           1.9315    2.6478   13.9556 H       1  LIG1        0.0633
     17 C           2.6090    1.1712   15.1569 C.ar    1  LIG1        0.0411
     18 C           2.7601    0.7686   16.4754 C.ar    1  LIG1       -0.0415
     19 H           3.1563   -0.0495   16.6715 H       1  LIG1        0.0633
     20 C           2.3231    1.5825   17.4883 C.ar    1  LIG1       -0.0358
     21 H           2.4175    1.3137   18.3727 H       1  LIG1        0.0638
     22 CL          3.1608    0.1331   13.8747 Cl      1  LIG1       -0.0835
     23 N           1.3796    3.3430   19.3596 N.pl3   1  LIG1       -0.1293
     24 N           1.2447    3.7276   18.1598 N.pl3   1  LIG1       -0.1294
     25 O          -0.0023    4.8924   24.9729 O.2     1  LIG1       -0.2956
     26 O          -0.6498    6.8239   23.1969 O.3     1  LIG1       -0.5061
     27 H          -0.6865    6.6092   24.0154 H       1  LIG1        0.2922
@<TRIPOS>BOND
     1    22    17    1
     2    16    15    1
     3    15    17   ar
     4    15    13   ar
     5    17    18   ar
     6    14    13    1
     7    13    12   ar
     8    18    19    1
     9    18    20   ar
    10    12    20   ar
    11    12    24    1
    12    20    21    1
    13    24    23    1
    14     6     5    1
    15    23     7    1
    16     5     7   ar
    17     5     3   ar
    18     7     8   ar
    19     4     3    1
    20     3     2   ar
    21     8     9    1
    22     8     1   ar
    23     2     1   ar
    24     2    26    1
    25     1    10    1
    26    26    27    1
    27    10    11    1
    28    10    25    2
