@<TRIPOS>MOLECULE
2-Carboxypyridinium hydrogen chloranilate
 28 28 0 0 0
SMALL
GASTEIGER

@<TRIPOS>ATOM
      1 CL          3.8009   -3.6710    5.6950 Cl      1  LIG1       -0.0755
      2 CL          1.4186    0.9974    9.2899 Cl      1  LIG1       -0.0980
      3 O           1.5590   -1.8294    5.0814 O.2     1  LIG1       -0.2824
      4 O           4.6648   -2.8372    8.4699 O.2     1  LIG1       -0.5023
      5 O           3.6235   -0.9182    9.8775 O.2     1  LIG1       -0.2863
      6 O           0.5994    0.2454    6.4303 O.2     1  LIG1       -0.2861
      7 O           2.3888    3.2537    1.7920 O.3     2  LIG2       -0.4773
      8 O           1.5425    2.7558   -0.2202 O.2     2  LIG2       -0.2454
      9 N           0.3000    0.4214    3.7090 N.pl3   2  LIG2       -0.3262
     10 C           2.0693   -1.6079    6.1635 C.2     1  LIG1        0.2452
     11 C           3.1795   -2.4034    6.6936 C.2     1  LIG1        0.1359
     12 C           3.6587   -2.1547    7.9121 C.2     1  LIG1        0.1841
     13 C           3.1010   -1.0589    8.7769 C.2     1  LIG1        0.2296
     14 C           2.0240   -0.2742    8.2681 C.3     1  LIG1        0.2088
     15 C           1.5037   -0.4464    7.0080 C.2     1  LIG1        0.2348
     16 C           1.0191    1.3429    3.0570 C.2     2  LIG2        0.0038
     17 C           0.8071    1.5595    1.7149 C.2     2  LIG2        0.0578
     18 C          -0.1663    0.8102    1.0692 C.3     2  LIG2        0.0221
     19 C          -0.8808   -0.1466    1.7756 C.2     2  LIG2       -0.0617
     20 C          -0.6351   -0.3193    3.1019 C.2     2  LIG2       -0.0100
     21 C           1.6094    2.5907    0.9771 C.2     2  LIG2        0.3346
     22 H           4.8205   -2.5087    9.2317 H       1  LIG1        0.2923
     23 H           0.3617    0.1955    4.6383 H       2  LIG2        0.1511
     24 H           1.6614    1.8370    3.5119 H       2  LIG2        0.0786
     25 H          -0.3389    0.9492    0.1662 H       2  LIG2        0.0403
     26 H          -1.5227   -0.6652    1.3466 H       2  LIG2        0.0591
     27 H          -1.1156   -0.9514    3.5860 H       2  LIG2        0.0778
     28 H           2.9835    3.9205    1.3477 H       2  LIG2        0.2954
@<TRIPOS>BOND
     1     8    21    2
     2    25    18    1
     3    21    17    1
     4    21     7    1
     5    18    17    1
     6    18    19    1
     7    26    19    1
     8    28     7    1
     9    17    16    2
    10    19    20    2
    11    16    24    1
    12    16     9    1
    13    20    27    1
    14    20     9    1
    15     9    23    1
    16     3    10    2
    17     1    11    1
    18    10    11    1
    19    10    15    1
    20     6    15    2
    21    11    12    2
    22    15    14    1
    23    12     4    1
    24    12    13    1
    25    14    13    1
    26    14     2    1
    27     4    22    1
    28    13     5    2
