@<TRIPOS>MOLECULE
(3S,5R,6S,7S,10S,11R,15S,18R,19R)-5,10,19-triacetoxy-12,12- dimethyl-2-methylene-9,16-dioxapentacyclo [14.2.1.0^6,18^.0^7,11^.0^7,15^]nonadecane-1,17-dione
 68 72 0 0 0
SMALL
GASTEIGER

@<TRIPOS>ATOM
      1 O           1.4367   10.4526   17.2592 O.2     1  LIG1       -0.2496
      2 O           3.6103   11.2703   15.4755 O.2     1  LIG1       -0.2911
      3 O           0.6257    9.2127   14.8453 O.3     1  LIG1       -0.4593
      4 O          -1.0750    8.3845   13.6651 O.2     1  LIG1       -0.2512
      5 O          -1.1407   12.8897   13.4968 O.3     1  LIG1       -0.4612
      6 O          -1.6226   14.2616   11.8205 O.2     1  LIG1       -0.2512
      7 O           2.2367   15.6292   13.8368 O.3     1  LIG1       -0.4349
      8 O           2.3562   17.7457   13.2015 O.2     1  LIG1       -0.2511
      9 O           2.3505   15.4482   16.1158 O.3     1  LIG1       -0.3405
     10 O           0.0834   12.1600   17.2325 O.3     1  LIG1       -0.4599
     11 C           2.6368   11.1245   14.7781 C.2     1  LIG1        0.1799
     12 C           2.6063   10.6668   13.3546 C.2     1  LIG1       -0.0040
     13 C           1.1539   10.6300   12.9395 C.3     1  LIG1        0.0289
     14 H           0.9747    9.8549   12.3671 H       1  LIG1        0.0387
     15 C           0.7144   11.9378   12.2477 C.3     1  LIG1       -0.0050
     16 H           1.4502   12.2765   11.7141 H       1  LIG1        0.0308
     17 H          -0.0225   11.7451   11.6465 H       1  LIG1        0.0308
     18 C           0.2783   13.0192   13.2345 C.3     1  LIG1        0.1088
     19 H           0.4350   13.8932   12.8206 H       1  LIG1        0.0737
     20 C           1.0423   12.9729   14.5582 C.3     1  LIG1        0.0342
     21 H           1.9528   13.2627   14.3374 H       1  LIG1        0.0360
     22 C           0.5826   13.9176   15.6822 C.3     1  LIG1        0.0479
     23 C           1.7725   14.2333   16.5935 C.3     1  LIG1        0.0616
     24 H           1.4750   14.3381   17.5108 H       1  LIG1        0.0568
     25 H           2.4227   13.5135   16.5602 H       1  LIG1        0.0568
     26 C           1.5888   15.9761   15.0756 C.3     1  LIG1        0.2087
     27 H           1.5190   16.9496   15.1625 H       1  LIG1        0.1060
     28 C           0.2152   15.3383   15.1704 C.3     1  LIG1        0.0384
     29 H          -0.1634   15.2634   14.2698 H       1  LIG1        0.0374
     30 C          -0.7561   16.1674   16.0568 C.3     1  LIG1       -0.0256
     31 C          -1.8638   15.2648   16.5763 C.3     1  LIG1       -0.0440
     32 H          -2.3832   14.9389   15.8251 H       1  LIG1        0.0272
     33 H          -2.4553   15.7834   17.1424 H       1  LIG1        0.0272
     34 C          -1.3353   14.0703   17.3703 C.3     1  LIG1       -0.0145
     35 H          -0.7753   14.3778   18.1010 H       1  LIG1        0.0301
     36 H          -2.0745   13.5645   17.7440 H       1  LIG1        0.0301
     37 C          -0.5352   13.2024   16.4373 C.3     1  LIG1        0.1117
     38 H          -1.1426   12.7894   15.7882 H       1  LIG1        0.0740
     39 C           0.9262   11.3143   16.6197 C.2     1  LIG1        0.3253
     40 C           1.2057   11.4976   15.1351 C.3     1  LIG1        0.1734
     41 C           0.4135   10.5065   14.2668 C.3     1  LIG1        0.1332
     42 H          -0.5352   10.7391   14.1942 H       1  LIG1        0.0756
     43 C           3.6960   10.4585   12.6614 C.2     1  LIG1       -0.0918
     44 H           4.5287   10.5960   13.0522 H       1  LIG1        0.0539
     45 H           3.6374   10.1751   11.7768 H       1  LIG1        0.0539
     46 C          -1.3736   17.2443   15.1544 C.3     1  LIG1       -0.0593
     47 H          -1.8435   16.8249   14.4307 H       1  LIG1        0.0235
     48 H          -0.6783   17.8054   14.8038 H       1  LIG1        0.0235
     49 H          -1.9866   17.7785   15.6659 H       1  LIG1        0.0235
     50 C          -0.0834   16.8759   17.2470 C.3     1  LIG1       -0.0593
     51 H          -0.7505   17.3194   17.7761 H       1  LIG1        0.0235
     52 H           0.5476   17.5220   16.9205 H       1  LIG1        0.0235
     53 H           0.3741   16.2283   17.7890 H       1  LIG1        0.0235
     54 C          -0.2344    8.2509   14.4902 C.2     1  LIG1        0.3043
     55 C           0.0270    7.0011   15.2654 C.3     1  LIG1        0.0332
     56 H          -0.6964    6.3848   15.1303 H       1  LIG1        0.0342
     57 H           0.0980    7.2123   16.1999 H       1  LIG1        0.0342
     58 H           0.8462    6.6030   14.9646 H       1  LIG1        0.0342
     59 C          -1.9900   13.5475   12.7016 C.2     1  LIG1        0.3042
     60 C          -3.3940   13.2853   13.0474 C.3     1  LIG1        0.0332
     61 H          -3.9270   14.0519   12.8255 H       1  LIG1        0.0342
     62 H          -3.4638   13.1096   13.9900 H       1  LIG1        0.0342
     63 H          -3.7084   12.5230   12.5569 H       1  LIG1        0.0342
     64 C           2.6852   16.6081   13.0539 C.2     1  LIG1        0.3061
     65 C           3.6351   16.0980   12.0486 C.3     1  LIG1        0.0333
     66 H           3.8492   16.7965   11.4261 H       1  LIG1        0.0342
     67 H           3.2362   15.3612   11.5773 H       1  LIG1        0.0342
     68 H           4.4363   15.8018   12.4861 H       1  LIG1        0.0342
@<TRIPOS>BOND
     1    66    65    1
     2    67    65    1
     3    17    15    1
     4    16    15    1
     5    45    43    1
     6     6    59    2
     7    65    68    1
     8    65    64    1
     9    15    13    1
    10    15    18    1
    11    14    13    1
    12    63    60    1
    13    43    44    1
    14    43    12    2
    15    59    60    1
    16    59     5    1
    17    19    18    1
    18    61    60    1
    19    13    12    1
    20    13    41    1
    21    60    62    1
    22    64     8    2
    23    64     7    1
    24    18     5    1
    25    18    20    1
    26    12    11    1
    27     4    54    2
    28     7    26    1
    29    42    41    1
    30    41     3    1
    31    41    40    1
    32    29    28    1
    33    21    20    1
    34    47    46    1
    35    54     3    1
    36    54    55    1
    37    20    40    1
    38    20    22    1
    39    11    40    1
    40    11     2    2
    41    48    46    1
    42    58    55    1
    43    26    27    1
    44    26    28    1
    45    26     9    1
    46    56    55    1
    47    40    39    1
    48    46    49    1
    49    46    30    1
    50    28    22    1
    51    28    30    1
    52    55    57    1
    53    22    37    1
    54    22    23    1
    55    38    37    1
    56    32    31    1
    57    30    31    1
    58    30    50    1
    59     9    23    1
    60    37    10    1
    61    37    34    1
    62    25    23    1
    63    31    33    1
    64    31    34    1
    65    23    24    1
    66    39    10    1
    67    39     1    2
    68    52    50    1
    69    50    51    1
    70    50    53    1
    71    34    36    1
    72    34    35    1
