@<TRIPOS>MOLECULE
6-[(Z)-Benzylidene]-2,3-diphenyl-2-azabicyclo[2.2.2]octan-5-one
 51 55 0 0 0
SMALL
GASTEIGER

@<TRIPOS>ATOM
      1 C           2.5524    4.1785    3.2254 C.3     1  LIG1        0.0527
      2 H           1.8756    4.8255    2.9375 H       1  LIG1        0.0551
      3 C           2.8505    1.9916    4.3299 C.3     1  LIG1        0.0591
      4 H           2.7945    1.8771    5.3018 H       1  LIG1        0.0557
      5 C           4.2796    2.4745    4.0044 C.3     1  LIG1        0.0445
      6 H           4.9425    1.8259    4.3214 H       1  LIG1        0.0402
      7 C           4.4804    3.8071    4.6782 C.2     1  LIG1        0.1662
      8 C           3.5511    4.8405    4.1523 C.2     1  LIG1        0.0162
      9 C           3.2822    3.6006    2.0145 C.3     1  LIG1       -0.0294
     10 H           3.6407    4.3204    1.4728 H       1  LIG1        0.0287
     11 H           2.6620    3.0904    1.4705 H       1  LIG1        0.0287
     12 C           4.4215    2.6919    2.4930 C.3     1  LIG1       -0.0392
     13 H           4.3800    1.8407    2.0309 H       1  LIG1        0.0273
     14 H           5.2768    3.1037    2.2976 H       1  LIG1        0.0273
     15 C           0.8361    3.3188    4.8197 C.ar    1  LIG1        0.0307
     16 C           0.2565    2.2617    5.5217 C.ar    1  LIG1       -0.0406
     17 H           0.5899    1.3999    5.4141 H       1  LIG1        0.0636
     18 C          -0.8095    2.4811    6.3769 C.ar    1  LIG1       -0.0600
     19 H          -1.1900    1.7631    6.8273 H       1  LIG1        0.0618
     20 C          -1.3109    3.7409    6.5687 C.ar    1  LIG1       -0.0616
     21 H          -2.0216    3.8845    7.1501 H       1  LIG1        0.0618
     22 C          -0.7388    4.7927    5.8785 C.ar    1  LIG1       -0.0600
     23 H          -1.0673    5.6543    6.0037 H       1  LIG1        0.0618
     24 C           0.3106    4.5865    5.0093 C.ar    1  LIG1       -0.0406
     25 H           0.6695    5.3076    4.5449 H       1  LIG1        0.0636
     26 C           2.5220    0.6521    3.6940 C.ar    1  LIG1       -0.0264
     27 C           1.5427    0.5106    2.7339 C.ar    1  LIG1       -0.0568
     28 H           1.0686    1.2580    2.4497 H       1  LIG1        0.0621
     29 C           1.2548   -0.7234    2.1876 C.ar    1  LIG1       -0.0614
     30 H           0.5847   -0.7990    1.5477 H       1  LIG1        0.0618
     31 C           1.9451   -1.8340    2.5784 C.ar    1  LIG1       -0.0617
     32 H           1.7629   -2.6612    2.1935 H       1  LIG1        0.0618
     33 C           2.9055   -1.7177    3.5435 C.ar    1  LIG1       -0.0614
     34 H           3.3703   -2.4714    3.8289 H       1  LIG1        0.0618
     35 C           3.1863   -0.4875    4.0898 C.ar    1  LIG1       -0.0568
     36 H           3.8434   -0.4226    4.7449 H       1  LIG1        0.0621
     37 C           3.6372    6.1102    4.5343 C.2     1  LIG1       -0.0463
     38 H           4.2692    6.2799    5.1953 H       1  LIG1        0.0628
     39 C           2.8925    7.2791    4.0758 C.ar    1  LIG1       -0.0246
     40 C           2.4979    7.4367    2.7456 C.ar    1  LIG1       -0.0546
     41 H           2.6832    6.7686    2.1268 H       1  LIG1        0.0623
     42 C           1.8361    8.5735    2.3467 C.ar    1  LIG1       -0.0612
     43 H           1.5716    8.6638    1.4600 H       1  LIG1        0.0618
     44 C           1.5626    9.5764    3.2393 C.ar    1  LIG1       -0.0617
     45 H           1.1142   10.3428    2.9597 H       1  LIG1        0.0618
     46 C           1.9529    9.4448    4.5472 C.ar    1  LIG1       -0.0612
     47 H           1.7750   10.1248    5.1555 H       1  LIG1        0.0618
     48 C           2.6068    8.3082    4.9602 C.ar    1  LIG1       -0.0546
     49 H           2.8637    8.2280    5.8504 H       1  LIG1        0.0623
     50 N           1.9182    3.0668    3.9604 N.pl3   1  LIG1       -0.3149
     51 O           5.3207    4.0177    5.5366 O.2     1  LIG1       -0.2920
@<TRIPOS>BOND
     1    43    42    1
     2    11     9    1
     3    10     9    1
     4    30    29    1
     5     9    12    1
     6     9     1    1
     7    13    12    1
     8    41    40    1
     9    29    31   ar
    10    29    27   ar
    11    32    31    1
    12    14    12    1
    13    42    40   ar
    14    42    44   ar
    15    28    27    1
    16    12     5    1
    17    31    33   ar
    18    27    26   ar
    19    40    39   ar
    20     2     1    1
    21    45    44    1
    22     1    50    1
    23     1     8    1
    24    44    46   ar
    25    33    34    1
    26    33    35   ar
    27    26    35   ar
    28    26     3    1
    29    50     3    1
    30    50    15    1
    31     5     6    1
    32     5     3    1
    33     5     7    1
    34    39    37    1
    35    39    48   ar
    36    35    36    1
    37     8    37    2
    38     8     7    1
    39     3     4    1
    40    37    38    1
    41    25    24    1
    42    46    48   ar
    43    46    47    1
    44     7    51    2
    45    15    24   ar
    46    15    16   ar
    47    48    49    1
    48    24    22   ar
    49    17    16    1
    50    16    18   ar
    51    22    23    1
    52    22    20   ar
    53    18    20   ar
    54    18    19    1
    55    20    21    1
