@<TRIPOS>MOLECULE
(R)-1-Phenylethylammonium N-tetradecanoyl-L-phenylalaninate monohydrate
 87 86 0 0 0
SMALL
GASTEIGER

@<TRIPOS>ATOM
      1 OXT         2.3966    5.3854   11.6559 O.co2   1  PHE1       -0.2443
      2 O           4.2517    4.6234   10.6955 O.co2   1  PHE1       -0.2443
      3 O           3.5889    6.4498    7.9281 O.2     0  UNK0       -0.2758
      4 O           5.1599    2.9362   13.8955 O.3     1  HOH1       -0.4105
      5 N           3.0274    4.2961    8.2827 N.am    1  PHE1       -0.3020
      6 N           3.5225    4.6788   16.6559 N.4     2  LIG2        0.2239
      7 C           3.0087    4.8754   10.7000 C.2     1  PHE1        0.3762
      8 CA          2.1830    4.6035    9.4181 C.3     1  PHE1        0.1286
      9 CB          1.1407    3.5056    9.6231 C.3     1  PHE1        0.0014
     10 CG          0.1721    3.4427    8.4610 C.ar    1  PHE1       -0.0451
     11 CD2        -0.9240    4.3190    8.4117 C.ar    1  PHE1       -0.0585
     12 CE2        -1.7834    4.3135    7.3111 C.ar    1  PHE1       -0.0615
     13 CZ         -1.5747    3.4273    6.2696 C.ar    1  PHE1       -0.0617
     14 CE1        -0.5074    2.5595    6.3089 C.ar    1  PHE1       -0.0615
     15 CD1         0.3639    2.5565    7.3975 C.ar    1  PHE1       -0.0585
     16 C           3.6862    5.2527    7.6359 C.2     0  UNK0        0.2137
     17 C           4.5426    4.8011    6.4696 C.3     0  UNK0        0.0240
     18 C           3.7658    4.0301    5.4042 C.3     0  UNK0       -0.0448
     19 C           2.5304    4.7522    4.8900 C.3     0  UNK0       -0.0526
     20 C           1.8426    4.0096    3.7557 C.3     0  UNK0       -0.0530
     21 C           0.5811    4.6943    3.2387 C.3     0  UNK0       -0.0531
     22 C          -0.0926    3.9582    2.0922 C.3     0  UNK0       -0.0531
     23 C          -1.3525    4.6419    1.5838 C.3     0  UNK0       -0.0531
     24 C          -1.9893    3.9418    0.3774 C.3     0  UNK0       -0.0531
     25 C          -3.2588    4.6149   -0.1181 C.3     0  UNK0       -0.0531
     26 C          -3.8798    3.9338   -1.3306 C.3     0  UNK0       -0.0531
     27 C          -5.1526    4.6005   -1.8273 C.3     0  UNK0       -0.0533
     28 C          -5.7650    3.8958   -3.0384 C.3     0  UNK0       -0.0559
     29 C          -7.0074    4.5810   -3.5771 C.3     0  UNK0       -0.0653
     30 C           2.1526    4.7557   17.2584 C.3     2  LIG2       -0.0014
     31 C           1.1717    3.9507   16.4676 C.ar    2  LIG2       -0.0002
     32 C          -0.1912    4.2017   16.6685 C.ar    2  LIG2       -0.0533
     33 C          -1.1632    3.4537   16.0267 C.ar    2  LIG2       -0.0613
     34 C          -0.7879    2.4352   15.1765 C.ar    2  LIG2       -0.0617
     35 C           0.5494    2.1782   14.9364 C.ar    2  LIG2       -0.0613
     36 C           1.5269    2.9362   15.5924 C.ar    2  LIG2       -0.0533
     37 C           2.2380    4.3335   18.7233 C.3     2  LIG2       -0.0173
     38 H           3.2135    3.3983    8.0613 H       1  PHE1        0.1495
     39 HA          1.7150    5.3839    9.2117 H       1  PHE1        0.0619
     40 HB1         1.5807    2.6498    9.7019 H       1  PHE1        0.0337
     41 HB2         0.6535    3.6663   10.4206 H       1  PHE1        0.0337
     42 HD2        -1.0834    4.8969    9.1309 H       1  PHE1        0.0620
     43 HE2        -2.5138    4.9203    7.2785 H       1  PHE1        0.0618
     44 HZ         -2.1714    3.3968    5.5264 H       1  PHE1        0.0618
     45 HE1        -0.3641    1.9317    5.5877 H       1  PHE1        0.0618
     46 HD1         1.0966    1.9307    7.4122 H       1  PHE1        0.0620
     47 H           5.2319    4.2192    6.8022 H       0  UNK0        0.0358
     48 H           4.9275    5.5491    6.0640 H       0  UNK0        0.0358
     49 H           3.4904    3.1798    5.7744 H       0  UNK0        0.0270
     50 H           4.3427    3.8524    4.6657 H       0  UNK0        0.0270
     51 H           1.9168    4.8255    5.6072 H       0  UNK0        0.0265
     52 H           2.7895    5.5900    4.5794 H       0  UNK0        0.0265
     53 H           1.6055    3.1224    4.0641 H       0  UNK0        0.0265
     54 H           2.4555    3.9113    3.0334 H       0  UNK0        0.0265
     55 H          -0.0379    4.7402    3.9554 H       0  UNK0        0.0265
     56 H           0.8133    5.5436    2.9387 H       0  UNK0        0.0265
     57 H          -0.3227    3.0640    2.3927 H       0  UNK0        0.0265
     58 H           0.5244    3.8714    1.3733 H       0  UNK0        0.0265
     59 H          -1.9904    4.6404    2.2897 H       0  UNK0        0.0265
     60 H          -1.1338    5.5107    1.3343 H       0  UNK0        0.0265
     61 H          -2.2013    3.0281    0.6240 H       0  UNK0        0.0265
     62 H          -1.3599    3.9123   -0.3315 H       0  UNK0        0.0265
     63 H          -3.8956    4.5890    0.5877 H       0  UNK0        0.0265
     64 H          -3.0522    5.4902   -0.3510 H       0  UNK0        0.0265
     65 H          -4.0856    3.0131   -1.0947 H       0  UNK0        0.0265
     66 H          -3.2433    3.9163   -2.0334 H       0  UNK0        0.0265
     67 H          -5.7935    4.5790   -1.1253 H       0  UNK0        0.0265
     68 H          -4.9518    5.4757   -2.0696 H       0  UNK0        0.0265
     69 H          -5.9938    2.9891   -2.7855 H       0  UNK0        0.0263
     70 H          -5.1128    3.8479   -3.7298 H       0  UNK0        0.0263
     71 H          -7.6728    4.5905   -2.8997 H       0  UNK0        0.0230
     72 H          -7.3407    4.0720   -4.3231 H       0  UNK0        0.0230
     73 H          -6.7914    5.4438   -3.8496 H       0  UNK0        0.0230
     74 H           3.8268    3.8574   16.7520 H       2  LIG2        0.2000
     75 H           4.0259    5.4144   17.0222 H       2  LIG2        0.2000
     76 H           3.5422    4.9652   15.8440 H       2  LIG2        0.2000
     77 H           1.8727    5.6424   17.2339 H       2  LIG2        0.0900
     78 H          -0.4549    4.8799   17.2562 H       2  LIG2        0.0622
     79 H          -2.0830    3.6408   16.1699 H       2  LIG2        0.0618
     80 H          -1.4532    1.9068   14.7520 H       2  LIG2        0.0618
     81 H           0.8025    1.4751   14.3286 H       2  LIG2        0.0618
     82 H           2.4465    2.7271   15.4373 H       2  LIG2        0.0622
     83 H           2.5128    3.4038   18.7743 H       2  LIG2        0.0288
     84 H           2.8732    4.8595   19.1726 H       2  LIG2        0.0288
     85 H           1.3886    4.4113   19.1336 H       2  LIG2        0.0288
     86 H           4.8757    3.7626   13.8384 H       0  HOH0        0.2052
     87 H           5.6803    2.9592   14.8050 H       0  HOH0        0.2052
@<TRIPOS>BOND
     1    72    29    1
     2    73    29    1
     3    70    28    1
     4    29    28    1
     5    29    71    1
     6    28    69    1
     7    28    27    1
     8    68    27    1
     9    66    26    1
    10    27    26    1
    11    27    67    1
    12    26    65    1
    13    26    25    1
    14    64    25    1
    15    62    24    1
    16    25    24    1
    17    25    63    1
    18    24    61    1
    19    24    23    1
    20    60    23    1
    21    58    22    1
    22    23    22    1
    23    23    59    1
    24    22    57    1
    25    22    21    1
    26    56    21    1
    27    54    20    1
    28    21    20    1
    29    21    55    1
    30    20    53    1
    31    20    19    1
    32    52    19    1
    33    50    18    1
    34    19    18    1
    35    19    51    1
    36    18    49    1
    37    18    17    1
    38    44    13    1
    39    45    14    1
    40    48    17    1
    41    13    14   ar
    42    13    12   ar
    43    14    15   ar
    44    17    47    1
    45    17    16    1
    46    43    12    1
    47    12    11   ar
    48    15    46    1
    49    15    10   ar
    50    16     3    2
    51    16     5   am
    52    38     5    1
    53     5     8    1
    54    11    10   ar
    55    11    42    1
    56    10     9    1
    57    39     8    1
    58     8     9    1
    59     8     7    1
    60     9    40    1
    61     9    41    1
    62     2     7   ar
    63     7     1   ar
    64    86     4    1
    65     4    87    1
    66    81    35    1
    67    80    34    1
    68    35    34   ar
    69    35    36   ar
    70    34    33   ar
    71    82    36    1
    72    36    31   ar
    73    76     6    1
    74    33    79    1
    75    33    32   ar
    76    31    32   ar
    77    31    30    1
    78     6    74    1
    79     6    75    1
    80     6    30    1
    81    32    78    1
    82    77    30    1
    83    30    37    1
    84    37    83    1
    85    37    85    1
    86    37    84    1
