@<TRIPOS>MOLECULE
(E)-1-[3-(Benzyloxy)benzylidene]-2-(2,4-dinitrophenyl)hydrazine
 45 47 0 0 0
SMALL
GASTEIGER

@<TRIPOS>ATOM
      1 O           7.3535    1.1154    8.4908 O.3     1  LIG1       -0.4874
      2 O           4.7612   -0.7250   -0.0999 O.2     1  LIG1       -0.1261
      3 O           3.1618   -1.8268   -1.0134 O.2     1  LIG1       -0.1261
      4 O          -0.1342   -4.1242    1.4999 O.2     1  LIG1       -0.1261
      5 O          -0.1699   -3.9779    3.6437 O.2     1  LIG1       -0.1261
      6 N           5.5613   -0.2199    3.7293 N.3     1  LIG1       -0.1349
      7 N           4.9888   -0.5755    2.5158 N.pl3   1  LIG1       -0.2604
      8 H           5.3414   -0.3057    1.7795 H       1  LIG1        0.1679
      9 N           3.7468   -1.4280   -0.0169 N.pl3   1  LIG1        0.0584
     10 N           0.3342   -3.7378    2.5558 N.pl3   1  LIG1        0.0565
     11 C           4.7562    0.9917   10.8540 C.ar    1  LIG1       -0.0554
     12 H           4.1243    1.4096   10.3149 H       1  LIG1        0.0621
     13 C           4.5369    0.8947   12.2195 C.ar    1  LIG1       -0.0614
     14 H           3.7610    1.2514   12.5881 H       1  LIG1        0.0618
     15 C           5.4550    0.2783   13.0340 C.ar    1  LIG1       -0.0617
     16 H           5.2977    0.2064   13.9477 H       1  LIG1        0.0618
     17 C           6.6150   -0.2344   12.4836 C.ar    1  LIG1       -0.0614
     18 H           7.2479   -0.6465   13.0261 H       1  LIG1        0.0618
     19 C           6.8300   -0.1317   11.1215 C.ar    1  LIG1       -0.0554
     20 H           7.6143   -0.4760   10.7588 H       1  LIG1        0.0621
     21 C           5.9079    0.4703   10.2863 C.ar    1  LIG1       -0.0104
     22 C           6.1037    0.4902    8.7960 C.3     1  LIG1        0.1146
     23 H           6.0964   -0.4164    8.4518 H       1  LIG1        0.0748
     24 H           5.3794    0.9812    8.3762 H       1  LIG1        0.0748
     25 C           7.6895    1.2401    7.1621 C.ar    1  LIG1        0.1213
     26 C           8.8810    1.9272    6.9223 C.ar    1  LIG1       -0.0199
     27 H           9.3759    2.2614    7.6357 H       1  LIG1        0.0654
     28 C           9.3227    2.1107    5.6336 C.ar    1  LIG1       -0.0580
     29 H          10.1267    2.5514    5.4779 H       1  LIG1        0.0619
     30 C           8.5709    1.6404    4.5623 C.ar    1  LIG1       -0.0567
     31 H           8.8692    1.7729    3.6924 H       1  LIG1        0.0621
     32 C           7.3736    0.9722    4.7914 C.ar    1  LIG1       -0.0218
     33 C           6.9332    0.7613    6.1044 C.ar    1  LIG1       -0.0151
     34 H           6.1403    0.3033    6.2642 H       1  LIG1        0.0657
     35 C           6.6149    0.5076    3.6264 C.3     1  LIG1        0.0931
     36 H           6.9087    0.7494    2.7768 H       1  LIG1        0.0564
     37 C           3.8757   -1.3475    2.4898 C.ar    1  LIG1        0.0730
     38 C           3.2362   -1.7797    1.2966 C.ar    1  LIG1        0.1503
     39 C           2.0840   -2.5608    1.3153 C.ar    1  LIG1        0.0006
     40 H           1.6802   -2.8274    0.5215 H       1  LIG1        0.0664
     41 C           1.5547   -2.9294    2.5260 C.ar    1  LIG1        0.1285
     42 C           2.1506   -2.5369    3.7251 C.ar    1  LIG1       -0.0296
     43 H           1.7823   -2.8003    4.5364 H       1  LIG1        0.0641
     44 C           3.2765   -1.7645    3.7022 C.ar    1  LIG1       -0.0352
     45 H           3.6610   -1.5040    4.5086 H       1  LIG1        0.0638
@<TRIPOS>BOND
     1     3     9    2
     2     2     9    2
     3     9    38    1
     4    40    39    1
     5    38    39   ar
     6    38    37   ar
     7    39    41   ar
     8     4    10    2
     9     8     7    1
    10    37     7    1
    11    37    44   ar
    12     7     6    1
    13    41    10    1
    14    41    42   ar
    15    10     5    2
    16    36    35    1
    17    35     6    1
    18    35    32    1
    19    31    30    1
    20    44    42   ar
    21    44    45    1
    22    42    43    1
    23    30    32   ar
    24    30    28   ar
    25    32    33   ar
    26    29    28    1
    27    28    26   ar
    28    33    34    1
    29    33    25   ar
    30    26    25   ar
    31    26    27    1
    32    25     1    1
    33    24    22    1
    34    23    22    1
    35     1    22    1
    36    22    21    1
    37    21    11   ar
    38    21    19   ar
    39    12    11    1
    40    20    19    1
    41    11    13   ar
    42    19    17   ar
    43    13    14    1
    44    13    15   ar
    45    17    18    1
    46    17    15   ar
    47    15    16    1
