@<TRIPOS>MOLECULE
3-Hydroxy-4-methoxybenzaldehyde isonicotinoylhydrazone monohydrate
 36 36 0 0 0
SMALL
GASTEIGER

@<TRIPOS>ATOM
      1 O           1.9955    6.2490    4.9502 O.2     1  LIG1       -0.2684
      2 O           2.7838    2.7129   10.4969 O.3     1  LIG1       -0.5033
      3 H           3.4463    2.8826    9.8311 H       1  LIG1        0.2923
      4 O           1.0138    1.3081   11.7618 O.3     1  LIG1       -0.4915
      5 N          -0.2718    7.3659    0.6329 N.ar    1  LIG1       -0.2632
      6 N           0.1446    4.9635    5.0730 N.am    1  LIG1       -0.2030
      7 H          -0.5036    4.6151    4.6834 H       1  LIG1        0.1776
      8 N           0.5352    4.4189    6.2848 N.2     1  LIG1       -0.1875
      9 C          -1.1579    6.8087    1.4503 C.ar    1  LIG1        0.0283
     10 H          -2.0439    6.7636    1.1712 H       1  LIG1        0.0830
     11 C          -0.8410    6.2914    2.6914 C.ar    1  LIG1       -0.0314
     12 H          -1.5008    5.9145    3.2280 H       1  LIG1        0.0640
     13 C           0.4696    6.3410    3.1247 C.ar    1  LIG1        0.0412
     14 C           1.3982    6.9152    2.2756 C.ar    1  LIG1       -0.0314
     15 H           2.2925    6.9738    2.5253 H       1  LIG1        0.0640
     16 C           0.9823    7.3973    1.0611 C.ar    1  LIG1        0.0283
     17 H           1.6226    7.7712    0.5004 H       1  LIG1        0.0830
     18 C           0.9389    5.8489    4.4648 C.2     1  LIG1        0.2634
     19 C          -0.3002    3.6223    6.8187 C.2     1  LIG1        0.0529
     20 H          -1.1130    3.4536    6.4007 H       1  LIG1        0.0851
     21 C           0.0150    2.9700    8.0895 C.ar    1  LIG1       -0.0018
     22 C           1.2741    3.1422    8.6739 C.ar    1  LIG1       -0.0079
     23 H           1.9161    3.6535    8.2371 H       1  LIG1        0.0662
     24 C           1.5745    2.5669    9.8835 C.ar    1  LIG1        0.1590
     25 C           0.6022    1.8146   10.5629 C.ar    1  LIG1        0.1613
     26 C          -0.6391    1.6303    9.9888 C.ar    1  LIG1       -0.0157
     27 H          -1.2846    1.1248   10.4284 H       1  LIG1        0.0655
     28 C          -0.9236    2.2021    8.7504 C.ar    1  LIG1       -0.0494
     29 H          -1.7576    2.0646    8.3633 H       1  LIG1        0.0625
     30 C           0.0471    0.5998   12.5437 C.3     1  LIG1        0.0790
     31 H          -0.6903    1.1811   12.7431 H       1  LIG1        0.0660
     32 H           0.4525    0.3033   13.3627 H       1  LIG1        0.0660
     33 H          -0.2688   -0.1597   12.0501 H       1  LIG1        0.0660
     34 O           4.7358    2.9271    8.7994 O.3     2  HOH2       -0.4105
     35 H           4.7371    2.5161    8.0112 H       0  HOH0        0.2052
     36 H           5.2291    3.5501    8.7708 H       0  HOH0        0.2052
@<TRIPOS>BOND
     1    17    16    1
     2     5    16   ar
     3     5     9   ar
     4    16    14   ar
     5    10     9    1
     6     9    11   ar
     7    14    15    1
     8    14    13   ar
     9    11    13   ar
    10    11    12    1
    11    13    18    1
    12    18     1    2
    13    18     6   am
    14     7     6    1
    15     6     8    1
    16     8    19    2
    17    20    19    1
    18    19    21    1
    19    35    34    1
    20    21    22   ar
    21    21    28   ar
    22    23    22    1
    23    29    28    1
    24    22    24   ar
    25    28    26   ar
    26    36    34    1
    27     3     2    1
    28    24     2    1
    29    24    25   ar
    30    26    27    1
    31    26    25   ar
    32    25     4    1
    33     4    30    1
    34    33    30    1
    35    30    31    1
    36    30    32    1
