@<TRIPOS>MOLECULE
1,5-Diphenyl-3-(2-pyridyl)pentane-1,5-dione
 44 46 0 0 0
SMALL
GASTEIGER

@<TRIPOS>ATOM
      1 N           7.4508    1.1981    9.3985 N.ar    1  LIG1       -0.2596
      2 O           8.2342    2.4515    6.3410 O.2     1  LIG1       -0.2920
      3 O           3.9672    3.8758    6.6195 O.2     1  LIG1       -0.2920
      4 C           8.2640    1.0561   10.4578 C.ar    1  LIG1        0.0279
      5 H           8.6390    0.2198   10.6116 H       1  LIG1        0.0829
      6 C           8.5718    2.0654   11.3226 C.ar    1  LIG1       -0.0436
      7 H           9.1347    1.9143   12.0475 H       1  LIG1        0.0633
      8 C           8.0382    3.2991   11.0997 C.ar    1  LIG1       -0.0586
      9 H           8.2376    4.0102   11.6648 H       1  LIG1        0.0619
     10 C           7.2058    3.4715   10.0353 C.ar    1  LIG1       -0.0401
     11 H           6.8298    4.3062    9.8668 H       1  LIG1        0.0636
     12 C           6.9214    2.4045    9.2059 C.ar    1  LIG1        0.0452
     13 C           5.9798    2.5761    8.0438 C.3     1  LIG1        0.0153
     14 H           6.1712    3.4417    7.6265 H       1  LIG1        0.0372
     15 C           6.1575    1.4973    6.9845 C.3     1  LIG1        0.0191
     16 H           5.9705    0.6339    7.3846 H       1  LIG1        0.0352
     17 H           5.5069    1.6418    6.2795 H       1  LIG1        0.0352
     18 C           7.5361    1.4597    6.3728 C.2     1  LIG1        0.1638
     19 C           8.0211    0.1854    5.7741 C.ar    1  LIG1        0.0174
     20 C           7.1572   -0.8511    5.4466 C.ar    1  LIG1       -0.0513
     21 H           6.2489   -0.7683    5.6237 H       1  LIG1        0.0624
     22 C           7.6421   -2.0093    4.8565 C.ar    1  LIG1       -0.0611
     23 H           7.0577   -2.6989    4.6362 H       1  LIG1        0.0618
     24 C           8.9769   -2.1377    4.6008 C.ar    1  LIG1       -0.0617
     25 H           9.2975   -2.9132    4.1999 H       1  LIG1        0.0618
     26 C           9.8523   -1.1315    4.9299 C.ar    1  LIG1       -0.0611
     27 H          10.7606   -1.2314    4.7606 H       1  LIG1        0.0618
     28 C           9.3790    0.0434    5.5175 C.ar    1  LIG1       -0.0513
     29 H           9.9703    0.7283    5.7352 H       1  LIG1        0.0624
     30 C           4.5287    2.6006    8.5380 C.3     1  LIG1        0.0191
     31 H           4.2446    1.6909    8.7168 H       1  LIG1        0.0352
     32 H           4.4921    3.0912    9.3743 H       1  LIG1        0.0352
     33 C           3.5662    3.2245    7.5703 C.2     1  LIG1        0.1638
     34 C           2.1001    3.0705    7.8166 C.ar    1  LIG1        0.0174
     35 C           1.5893    2.2170    8.7730 C.ar    1  LIG1       -0.0513
     36 H           2.1690    1.7145    9.2966 H       1  LIG1        0.0624
     37 C           0.2213    2.0995    8.9622 C.ar    1  LIG1       -0.0611
     38 H          -0.1095    1.5238    9.6137 H       1  LIG1        0.0618
     39 C          -0.6295    2.8187    8.2054 C.ar    1  LIG1       -0.0617
     40 H          -1.5469    2.7334    8.3289 H       1  LIG1        0.0618
     41 C          -0.1456    3.6754    7.2524 C.ar    1  LIG1       -0.0611
     42 H          -0.7358    4.1736    6.7340 H       1  LIG1        0.0618
     43 C           1.2167    3.8038    7.0588 C.ar    1  LIG1       -0.0513
     44 H           1.5381    4.3898    6.4117 H       1  LIG1        0.0624
@<TRIPOS>BOND
     1    25    24    1
     2    24    22   ar
     3    24    26   ar
     4    23    22    1
     5    27    26    1
     6    22    20   ar
     7    26    28   ar
     8    20    21    1
     9    20    19   ar
    10    28    29    1
    11    28    19   ar
    12    19    18    1
    13    17    15    1
    14     2    18    2
    15    18    15    1
    16    44    43    1
    17     3    33    2
    18    42    41    1
    19    15    16    1
    20    15    13    1
    21    43    41   ar
    22    43    34   ar
    23    41    39   ar
    24    33    34    1
    25    33    30    1
    26    14    13    1
    27    34    35   ar
    28    13    30    1
    29    13    12    1
    30    39    40    1
    31    39    37   ar
    32    30    31    1
    33    30    32    1
    34    35    37   ar
    35    35    36    1
    36    37    38    1
    37    12     1   ar
    38    12    10   ar
    39     1     4   ar
    40    11    10    1
    41    10     8   ar
    42     4     5    1
    43     4     6   ar
    44     8     6   ar
    45     8     9    1
    46     6     7    1
