@<TRIPOS>MOLECULE
2-Hydroxy-6-[(1-napthylamino)methylene]cyclohexa-2,4-dien-1-one
 33 35 0 0 0
SMALL
GASTEIGER

@<TRIPOS>ATOM
      1 C           2.1259   12.1270    1.6595 C.2     1  LIG1        0.1810
      2 C           3.1217   11.1671    1.4168 C.ar    1  LIG1        0.0886
      3 C           4.4339   11.3303    1.9560 C.ar    1  LIG1        0.2327
      4 C           5.4088   10.3511    1.5885 C.ar    1  LIG1        0.1643
      5 C           5.0817    9.2865    0.7967 C.ar    1  LIG1       -0.0163
      6 C           3.7740    9.1280    0.2916 C.ar    1  LIG1       -0.0573
      7 C           2.8176   10.0447    0.5896 C.ar    1  LIG1       -0.0450
      8 C           1.4725   14.2795    2.6208 C.ar    1  LIG1        0.2138
      9 C           0.1890   14.2755    2.1313 C.ar    1  LIG1        0.0103
     10 C          -0.6696   15.3622    2.3860 C.ar    1  LIG1       -0.0550
     11 C          -0.2391   16.4266    3.1288 C.ar    1  LIG1       -0.0536
     12 C           1.0702   16.4528    3.6638 C.ar    1  LIG1       -0.0116
     13 C           1.5217   17.5304    4.4683 C.ar    1  LIG1       -0.0538
     14 C           2.7770   17.5409    4.9912 C.ar    1  LIG1       -0.0612
     15 C           3.6650   16.4811    4.7259 C.ar    1  LIG1       -0.0610
     16 C           3.2681   15.4181    3.9511 C.ar    1  LIG1       -0.0477
     17 C           1.9646   15.3694    3.4013 C.ar    1  LIG1        0.0533
     18 N           2.3624   13.2066    2.3803 N.2     1  LIG1       -0.2100
     19 O           4.7548   12.3157    2.7261 O.3     1  LIG1       -0.2832
     20 O           6.6960   10.4976    2.0346 O.3     1  LIG1       -0.5032
     21 H           1.2384   12.0354    1.2274 H       1  LIG1        0.1383
     22 H           6.7027   11.0077    2.7457 H       1  LIG1        0.2923
     23 H           3.3071   13.2511    2.7173 H       1  LIG1        0.4529
     24 H           5.7797    8.6215    0.6102 H       1  LIG1        0.0655
     25 H           3.5825    8.3551   -0.2625 H       1  LIG1        0.0619
     26 H           1.8940    9.9681    0.2270 H       1  LIG1        0.0627
     27 H          -0.1248   13.5104    1.5821 H       1  LIG1        0.0683
     28 H          -1.6151   15.3755    2.0078 H       1  LIG1        0.0620
     29 H          -0.8515   17.1574    3.3558 H       1  LIG1        0.0624
     30 H           0.9021   18.2327    4.6471 H       1  LIG1        0.0624
     31 H           3.0800   18.3089    5.5765 H       1  LIG1        0.0618
     32 H           4.5899   16.4961    5.1366 H       1  LIG1        0.0618
     33 H           3.9145   14.7261    3.7886 H       1  LIG1        0.0626
@<TRIPOS>BOND
     1    25     6    1
     2    26     7    1
     3     6     7   ar
     4     6     5   ar
     5     7     2   ar
     6    24     5    1
     7     5     4   ar
     8    21     1    1
     9     2     1    1
    10     2     3   ar
    11    27     9    1
    12     4     3   ar
    13     4    20    1
    14     1    18    2
    15     3    19    1
    16    28    10    1
    17    20    22    1
    18     9    10   ar
    19     9     8   ar
    20    18     8    1
    21    18    23    1
    22    10    11   ar
    23     8    17   ar
    24    11    29    1
    25    11    12   ar
    26    17    12   ar
    27    17    16   ar
    28    12    13   ar
    29    33    16    1
    30    16    15   ar
    31    13    30    1
    32    13    14   ar
    33    15    14   ar
    34    15    32    1
    35    14    31    1
