@<TRIPOS>MOLECULE
Ethyl 2-(5,7-dimethyl-1,2,4-triazolo[1,5-a]pyrimidin-2-yloxy)benzoate
 39 41 0 0 0
SMALL
GASTEIGER

@<TRIPOS>ATOM
      1 C          -0.3713   -1.6558   17.6288 C.3     1  LIG1       -0.0222
      2 H          -0.5877   -2.2727   16.9258 H       1  LIG1        0.0293
      3 H          -0.5139   -2.0770   18.4791 H       1  LIG1        0.0293
      4 H           0.5490   -1.3931   17.5515 H       1  LIG1        0.0293
      5 C          -1.2477   -0.4459   17.5178 C.ar    1  LIG1        0.0438
      6 C          -2.1988   -0.1521   18.5083 C.ar    1  LIG1       -0.0194
      7 H          -2.2472   -0.6934   19.2625 H       1  LIG1        0.0653
      8 C          -3.0496    0.9015   18.3949 C.ar    1  LIG1        0.0454
      9 C          -4.1092    1.3006   19.3539 C.3     1  LIG1       -0.0221
     10 H          -3.8555    2.1170   19.7893 H       1  LIG1        0.0293
     11 H          -4.2241    0.6092   20.0107 H       1  LIG1        0.0293
     12 H          -4.9348    1.4331   18.8817 H       1  LIG1        0.0293
     13 C          -1.9248    1.3519   16.3192 C.ar    1  LIG1        0.2563
     14 C          -3.0032    3.0169   15.7334 C.ar    1  LIG1        0.3442
     15 C          -2.6281    4.5777   14.0251 C.ar    1  LIG1        0.1459
     16 C          -1.8757    5.6762   14.3509 C.ar    1  LIG1       -0.0184
     17 H          -1.9140    6.0331   15.2097 H       1  LIG1        0.0654
     18 C          -1.0621    6.2477   13.3970 C.ar    1  LIG1       -0.0582
     19 H          -0.5503    6.9927   13.6144 H       1  LIG1        0.0619
     20 C          -1.0018    5.7259   12.1309 C.ar    1  LIG1       -0.0608
     21 H          -0.4494    6.1152   11.4908 H       1  LIG1        0.0618
     22 C          -1.7631    4.6231   11.8090 C.ar    1  LIG1       -0.0442
     23 H          -1.7132    4.2676   10.9506 H       1  LIG1        0.0627
     24 C          -2.6075    4.0310   12.7475 C.ar    1  LIG1        0.1012
     25 C          -3.4795    2.8890   12.3739 C.2     1  LIG1        0.3428
     26 C          -3.8215    1.1290   10.8204 C.3     1  LIG1        0.0900
     27 H          -4.7058    1.4352   10.5648 H       1  LIG1        0.0695
     28 H          -3.9174    0.4619   11.5193 H       1  LIG1        0.0695
     29 C          -3.1298    0.5461    9.6537 C.3     1  LIG1       -0.0306
     30 H          -2.9431    1.2384    9.0148 H       1  LIG1        0.0262
     31 H          -3.6899   -0.1199    9.2496 H       1  LIG1        0.0262
     32 H          -2.3067    0.1431    9.9391 H       1  LIG1        0.0262
     33 N          -1.0953    0.3054   16.4281 N.ar    1  LIG1       -0.2158
     34 N          -2.8808    1.6433   17.2643 N.ar    1  LIG1       -0.1979
     35 N          -3.6022    2.7487   16.8828 N.ar    1  LIG1       -0.1065
     36 N          -1.9994    2.2450   15.3233 N.ar    1  LIG1       -0.1558
     37 O          -3.4685    4.0795   15.0356 O.3     1  LIG1       -0.4218
     38 O          -4.4993    2.5801   12.9332 O.2     1  LIG1       -0.2448
     39 O          -3.0221    2.2465   11.3009 O.3     1  LIG1       -0.4614
@<TRIPOS>BOND
     1    30    29    1
     2    31    29    1
     3    29    32    1
     4    29    26    1
     5    27    26    1
     6    26    39    1
     7    26    28    1
     8    23    22    1
     9    39    25    1
    10    21    20    1
    11    22    20   ar
    12    22    24   ar
    13    20    18   ar
    14    25    24    1
    15    25    38    2
    16    24    15   ar
    17    18    19    1
    18    18    16   ar
    19    15    16   ar
    20    15    37    1
    21    16    17    1
    22    37    14    1
    23    36    14   ar
    24    36    13   ar
    25    14    35   ar
    26    13    33   ar
    27    13    34   ar
    28    33     5   ar
    29    35    34   ar
    30     2     1    1
    31    34     8   ar
    32     5     1    1
    33     5     6   ar
    34     4     1    1
    35     1     3    1
    36     8     6   ar
    37     8     9    1
    38     6     7    1
    39    12     9    1
    40     9    10    1
    41     9    11    1
