@<TRIPOS>MOLECULE
1,3-Bis(4-methoxyphenyl)-2-benzothiophene
 43 46 0 0 0
SMALL
GASTEIGER

@<TRIPOS>ATOM
      1 S           5.5142    1.2187   13.4594 S.2     1  LIG1       -0.0870
      2 O           7.4464    2.5120   19.6813 O.3     1  LIG1       -0.4951
      3 O           4.2570   -1.3740    7.5224 O.3     1  LIG1       -0.4951
      4 C           5.7661    2.6908   14.2913 C.ar    1  LIG1        0.0276
      5 C           5.5717    3.7654   13.4335 C.ar    1  LIG1       -0.0025
      6 C           5.7233    5.1572   13.7063 C.ar    1  LIG1       -0.0529
      7 H           5.9966    5.4460   14.5462 H       1  LIG1        0.0624
      8 C           5.4613    6.0547   12.7179 C.ar    1  LIG1       -0.0611
      9 H           5.5747    6.9617   12.8915 H       1  LIG1        0.0618
     10 C           5.0229    5.6535   11.4377 C.ar    1  LIG1       -0.0611
     11 H           4.8134    6.2987   10.8007 H       1  LIG1        0.0618
     12 C           4.9027    4.3365   11.1201 C.ar    1  LIG1       -0.0529
     13 H           4.6354    4.0820   10.2668 H       1  LIG1        0.0624
     14 C           5.1895    3.3507   12.1049 C.ar    1  LIG1       -0.0025
     15 C           5.1392    1.9688   11.9674 C.ar    1  LIG1        0.0276
     16 C           6.1738    2.6686   15.6992 C.ar    1  LIG1       -0.0105
     17 C           7.0177    1.6523   16.2001 C.ar    1  LIG1       -0.0501
     18 H           7.3173    0.9879   15.6224 H       1  LIG1        0.0625
     19 C           7.4066    1.6198   17.5153 C.ar    1  LIG1       -0.0194
     20 H           7.9555    0.9352   17.8222 H       1  LIG1        0.0654
     21 C           6.9794    2.6138   18.3885 C.ar    1  LIG1        0.1201
     22 C           6.1393    3.6298   17.9346 C.ar    1  LIG1       -0.0194
     23 H           5.8502    4.2948   18.5154 H       1  LIG1        0.0654
     24 C           5.7406    3.6388   16.6102 C.ar    1  LIG1       -0.0501
     25 H           5.1670    4.3096   16.3156 H       1  LIG1        0.0625
     26 C           7.0080    3.4927   20.6138 C.3     1  LIG1        0.0788
     27 H           7.2580    4.3657   20.3015 H       1  LIG1        0.0660
     28 H           7.4157    3.3283   21.4671 H       1  LIG1        0.0660
     29 H           6.0529    3.4454   20.7013 H       1  LIG1        0.0660
     30 C           4.8719    1.1408   10.7797 C.ar    1  LIG1       -0.0105
     31 C           4.1159   -0.0429   10.8686 C.ar    1  LIG1       -0.0501
     32 H           3.7382   -0.2837   11.6839 H       1  LIG1        0.0625
     33 C           3.9252   -0.8500    9.7723 C.ar    1  LIG1       -0.0194
     34 H           3.4169   -1.6246    9.8475 H       1  LIG1        0.0654
     35 C           4.4943   -0.5050    8.5500 C.ar    1  LIG1        0.1201
     36 C           5.2391    0.6596    8.4370 C.ar    1  LIG1       -0.0194
     37 H           5.6137    0.8989    7.6197 H       1  LIG1        0.0654
     38 C           5.4223    1.4629    9.5495 C.ar    1  LIG1       -0.0501
     39 H           5.9276    2.2397    9.4701 H       1  LIG1        0.0625
     40 C           4.9898   -1.1611    6.3250 C.3     1  LIG1        0.0788
     41 H           4.7323   -0.3216    5.9370 H       1  LIG1        0.0660
     42 H           4.8051   -1.8703    5.7050 H       1  LIG1        0.0660
     43 H           5.9291   -1.1463    6.5240 H       1  LIG1        0.0660
@<TRIPOS>BOND
     1    42    40    1
     2    41    40    1
     3    40    43    1
     4    40     3    1
     5     3    35    1
     6    37    36    1
     7    36    35   ar
     8    36    38   ar
     9    35    33   ar
    10    39    38    1
    11    38    30   ar
    12    33    34    1
    13    33    31   ar
    14    13    12    1
    15    30    31   ar
    16    30    15    1
    17    11    10    1
    18    31    32    1
    19    12    10   ar
    20    12    14   ar
    21    10     8   ar
    22    15    14   ar
    23    15     1   ar
    24    14     5   ar
    25     8     9    1
    26     8     6   ar
    27     5     6   ar
    28     5     4   ar
    29     1     4   ar
    30     6     7    1
    31     4    16    1
    32    18    17    1
    33    16    17   ar
    34    16    24   ar
    35    17    19   ar
    36    25    24    1
    37    24    22   ar
    38    19    20    1
    39    19    21   ar
    40    22    21   ar
    41    22    23    1
    42    21     2    1
    43     2    26    1
    44    27    26    1
    45    26    29    1
    46    26    28    1
