@<TRIPOS>MOLECULE
1-(Aminocarbonyl)ethylammonium hydrogensquarate monohydrate
 27 25 0 0 0
SMALL
GASTEIGER

@<TRIPOS>ATOM
      1 C          -0.1984    4.0757    1.5750 C.2     1  LIG1        0.2584
      2 O           0.3775    4.3634    0.5237 O.2     1  LIG1       -0.2698
      3 N           0.1962    3.1171    2.4038 N.am    1  LIG1       -0.3247
      4 H           0.8951    2.6510    2.2197 H       1  LIG1        0.1451
      5 H          -0.2471    2.9619    3.1237 H       1  LIG1        0.1451
      6 N          -1.1942    6.2749    1.8288 N.4     1  LIG1        0.2271
      7 H          -0.5309    6.5005    2.3775 H       1  LIG1        0.2002
      8 H          -1.9253    6.7358    2.0420 H       1  LIG1        0.2002
      9 H          -0.9619    6.4591    0.9903 H       1  LIG1        0.2002
     10 C          -1.4713    4.8204    1.9581 C.3     1  LIG1        0.0501
     11 H          -1.7098    4.6116    2.8858 H       1  LIG1        0.0946
     12 C          -2.6121    4.4345    1.0366 C.3     1  LIG1       -0.0130
     13 H          -3.3970    4.9355    1.2720 H       1  LIG1        0.0289
     14 H          -2.7926    3.4959    1.1268 H       1  LIG1        0.0289
     15 H          -2.3696    4.6284    0.1290 H       1  LIG1        0.0289
     16 C           4.6239    2.9115    6.9710 C.2     2  LIG2        0.2700
     17 O           5.7720    2.8889    7.4262 O.2     2  LIG2       -0.2802
     18 C           3.2668    3.0214    7.5732 C.2     2  LIG2        0.2488
     19 O           2.8307    3.1513    8.7346 O.2     2  LIG2       -0.2848
     20 C           2.7019    2.9083    6.2523 C.3     2  LIG2        0.2410
     21 O           1.5072    2.8533    5.7317 O.3     2  LIG2       -0.3704
     22 H           0.9479    2.8533    6.3312 H       2  LIG2        0.2114
     23 C           4.0019    2.8365    5.6201 C.2     2  LIG2        0.2488
     24 O           4.4125    2.7402    4.4525 O.2     2  LIG2       -0.2848
     25 O           2.7914    1.3762    2.6326 O.3     3  HOH3       -0.4105
     26 H           3.2467    1.6936    3.2426 H       0  HOH0        0.2052
     27 H           2.2811    0.8727    3.0423 H       0  HOH0        0.2052
@<TRIPOS>BOND
     1    15    12    1
     2     2     1    2
     3     9     6    1
     4    12    14    1
     5    12    13    1
     6    12    10    1
     7     1    10    1
     8     1     3   am
     9     6    10    1
    10     6     8    1
    11     6     7    1
    12    10    11    1
    13     4     3    1
    14     3     5    1
    15    25    27    1
    16    25    26    1
    17    24    23    2
    18    23    20    1
    19    23    16    1
    20    21    20    1
    21    21    22    1
    22    20    18    1
    23    16    17    2
    24    16    18    1
    25    18    19    2
