@<TRIPOS>MOLECULE
16-Cyano-13\a-(5-methyl-1,3,4-oxadiazol-2-yl)-13,16-seco-17-nor- androst-4-en-3-one
 53 56 0 0 0
SMALL
GASTEIGER

@<TRIPOS>ATOM
      1 C           4.0972    8.5676    7.6261 C.3     1  LIG1       -0.0367
      2 H           4.5727    9.3449    7.2929 H       1  LIG1        0.0278
      3 H           3.2524    8.5131    7.1514 H       1  LIG1        0.0278
      4 C           3.8136    8.7617    9.1263 C.3     1  LIG1        0.0107
      5 H           4.6409    8.9835    9.5816 H       1  LIG1        0.0345
      6 H           3.2007    9.5045    9.2432 H       1  LIG1        0.0345
      7 C           3.2288    7.5447    9.7391 C.2     1  LIG1        0.1561
      8 C           3.5263    6.2732    9.1222 C.2     1  LIG1       -0.0194
      9 H           3.1320    5.5089    9.4770 H       1  LIG1        0.0652
     10 C           4.3426    6.1327    8.0613 C.2     1  LIG1       -0.0601
     11 C           4.7936    4.7661    7.6395 C.3     1  LIG1       -0.0305
     12 H           4.2597    4.0985    8.0989 H       1  LIG1        0.0310
     13 H           5.7190    4.6402    7.9020 H       1  LIG1        0.0310
     14 C           4.6668    4.5620    6.1382 C.3     1  LIG1       -0.0459
     15 H           3.7280    4.5558    5.8942 H       1  LIG1        0.0271
     16 H           5.0446    3.7017    5.8983 H       1  LIG1        0.0271
     17 C           5.3874    5.6677    5.3554 C.3     1  LIG1       -0.0324
     18 H           6.3413    5.6324    5.5763 H       1  LIG1        0.0307
     19 C           4.8429    7.0382    5.7818 C.3     1  LIG1       -0.0287
     20 H           3.8885    7.0306    5.5599 H       1  LIG1        0.0312
     21 C           4.9245    7.3068    7.3150 C.3     1  LIG1       -0.0072
     22 C           5.4621    8.1563    4.9436 C.3     1  LIG1       -0.0482
     23 H           5.0536    9.0019    5.1866 H       1  LIG1        0.0269
     24 H           6.4100    8.2154    5.1395 H       1  LIG1        0.0269
     25 C           5.2732    7.9207    3.4545 C.3     1  LIG1       -0.0386
     26 H           5.6892    8.6466    2.9635 H       1  LIG1        0.0275
     27 H           4.3248    7.9291    3.2506 H       1  LIG1        0.0275
     28 C           5.8765    6.5870    2.9885 C.3     1  LIG1        0.0497
     29 C           5.2338    5.4544    3.8363 C.3     1  LIG1       -0.0113
     30 H           4.2714    5.4989    3.6567 H       1  LIG1        0.0323
     31 C           5.6794    4.0401    3.3962 C.3     1  LIG1        0.0388
     32 H           4.9939    3.4078    3.6649 H       1  LIG1        0.0421
     33 H           5.7265    4.0233    2.4282 H       1  LIG1        0.0421
     34 C           6.9560    3.5820    3.9253 C.1     1  LIG1        0.0628
     35 N           7.9498    3.1945    4.3232 N.1     1  LIG1       -0.1966
     36 C           7.4124    6.6162    3.0906 C.3     1  LIG1       -0.0508
     37 H           7.7771    5.8419    2.6559 H       1  LIG1        0.0240
     38 H           7.6720    6.6154    4.0156 H       1  LIG1        0.0240
     39 H           7.7469    7.4096    2.6661 H       1  LIG1        0.0240
     40 C           6.3798    7.5032    7.7687 C.3     1  LIG1       -0.0556
     41 H           6.4137    7.5362    8.7285 H       1  LIG1        0.0238
     42 H           6.7199    8.3251    7.4077 H       1  LIG1        0.0238
     43 H           6.9147    6.7696    7.4549 H       1  LIG1        0.0238
     44 O           2.5735    7.5992   10.7713 O.2     1  LIG1       -0.2927
     45 O           4.2792    6.6921    1.1173 O.2     1  LIG1       -0.4244
     46 C           5.5269    6.3821    1.5427 C.ar    1  LIG1        0.2234
     47 N           6.2352    5.9148    0.5995 N.ar    1  LIG1       -0.1118
     48 N           5.4191    5.9263   -0.5605 N.ar    1  LIG1       -0.1127
     49 C           4.3092    6.3760   -0.1967 C.ar    1  LIG1        0.2143
     50 C           3.0937    6.6285   -0.9988 C.3     1  LIG1        0.0138
     51 H           3.2053    6.2540   -1.8765 H       1  LIG1        0.0324
     52 H           2.9483    7.5746   -1.0705 H       1  LIG1        0.0324
     53 H           2.3372    6.2202   -0.5701 H       1  LIG1        0.0324
@<TRIPOS>BOND
     1    51    50    1
     2    52    50    1
     3    50    53    1
     4    50    49    1
     5    48    49   ar
     6    48    47   ar
     7    49    45   ar
     8    47    46   ar
     9    45    46   ar
    10    46    28    1
    11    33    31    1
    12    37    36    1
    13    39    36    1
    14    26    25    1
    15    28    36    1
    16    28    25    1
    17    28    29    1
    18    36    38    1
    19    27    25    1
    20    31    32    1
    21    31    29    1
    22    31    34    1
    23    25    22    1
    24    30    29    1
    25    29    17    1
    26    34    35    3
    27    22    24    1
    28    22    23    1
    29    22    19    1
    30    17    18    1
    31    17    19    1
    32    17    14    1
    33    20    19    1
    34    19    21    1
    35    15    14    1
    36    16    14    1
    37    14    11    1
    38     3     1    1
    39     2     1    1
    40    21     1    1
    41    21    40    1
    42    21    10    1
    43    42    40    1
    44    43    40    1
    45     1     4    1
    46    11    13    1
    47    11    10    1
    48    11    12    1
    49    40    41    1
    50    10     8    2
    51     8     9    1
    52     8     7    1
    53     4     6    1
    54     4     5    1
    55     4     7    1
    56     7    44    2
