@<TRIPOS>MOLECULE
2',2'-Dibenzylideneisophthalohydrazide methanol solvate
 52 53 0 0 0
SMALL
GASTEIGER

@<TRIPOS>ATOM
      1 C           6.4628   -0.8176    4.9152 C.ar    1  LIG1       -0.0253
      2 C           6.0341   -2.0403    5.4057 C.ar    1  LIG1       -0.0569
      3 H           5.3218   -2.4802    5.0002 H       1  LIG1        0.0621
      4 C           6.6606   -2.6011    6.4909 C.ar    1  LIG1       -0.0614
      5 H           6.3694   -3.4190    6.8235 H       1  LIG1        0.0618
      6 C           7.7226   -1.9497    7.0887 C.ar    1  LIG1       -0.0617
      7 H           8.1390   -2.3314    7.8274 H       1  LIG1        0.0618
      8 C           8.1651   -0.7539    6.6077 C.ar    1  LIG1       -0.0614
      9 H           8.8828   -0.3227    7.0123 H       1  LIG1        0.0618
     10 C           7.5452   -0.1931    5.5254 C.ar    1  LIG1       -0.0569
     11 H           7.8519    0.6190    5.1919 H       1  LIG1        0.0621
     12 C           5.8242   -0.1449    3.7956 C.3     1  LIG1        0.0930
     13 H           6.2429    0.6027    3.4344 H       1  LIG1        0.0564
     14 C           3.0657    0.0404    1.6868 C.2     1  LIG1        0.2588
     15 C           2.6669    1.0348    0.6383 C.ar    1  LIG1        0.0387
     16 C           3.1660    2.3361    0.6396 C.ar    1  LIG1       -0.0374
     17 H           3.7035    2.6202    1.3433 H       1  LIG1        0.0633
     18 C           2.8715    3.2108   -0.3925 C.ar    1  LIG1        0.0391
     19 C           2.0461    2.7859   -1.4240 C.ar    1  LIG1       -0.0495
     20 H           1.8617    3.3541   -2.1365 H       1  LIG1        0.0625
     21 C           1.4988    1.5157   -1.3902 C.ar    1  LIG1       -0.0603
     22 H           0.9128    1.2482   -2.0618 H       1  LIG1        0.0618
     23 C           1.8130    0.6415   -0.3708 C.ar    1  LIG1       -0.0496
     24 H           1.4485   -0.2137   -0.3644 H       1  LIG1        0.0625
     25 C           3.4680    4.5819   -0.4751 C.2     1  LIG1        0.2633
     26 C           4.7709    6.8402    1.8216 C.2     1  LIG1        0.0528
     27 H           4.6324    6.3089    2.5725 H       1  LIG1        0.0851
     28 C           5.3971    8.1516    1.9904 C.ar    1  LIG1       -0.0055
     29 C           5.8754    8.4963    3.2423 C.ar    1  LIG1       -0.0531
     30 H           5.7750    7.9079    3.9554 H       1  LIG1        0.0624
     31 C           6.5032    9.7123    3.4368 C.ar    1  LIG1       -0.0612
     32 H           6.8276    9.9372    4.2788 H       1  LIG1        0.0618
     33 C           6.6491   10.5847    2.3980 C.ar    1  LIG1       -0.0617
     34 H           7.0628   11.4064    2.5360 H       1  LIG1        0.0618
     35 C           6.1849   10.2527    1.1465 C.ar    1  LIG1       -0.0612
     36 H           6.2998   10.8435    0.4375 H       1  LIG1        0.0618
     37 C           5.5484    9.0451    0.9365 C.ar    1  LIG1       -0.0531
     38 H           5.2218    8.8304    0.0922 H       1  LIG1        0.0624
     39 C           4.0361    3.4630    4.2462 C.3     1  LIG1        0.0330
     40 H           4.3448    2.7042    3.7461 H       1  LIG1        0.0521
     41 H           3.4444    3.1685    4.9431 H       1  LIG1        0.0521
     42 H           4.7885    3.9171    4.6344 H       1  LIG1        0.0521
     43 N           4.7258   -0.5238    3.2833 N.3     1  LIG1       -0.1326
     44 N           4.2798    0.2626    2.2355 N.am    1  LIG1       -0.2288
     45 H           4.7764    0.8960    1.9331 H       1  LIG1        0.1709
     46 N           3.8299    5.1451    0.6949 N.am    1  LIG1       -0.2030
     47 H           3.7031    4.7306    1.4370 H       1  LIG1        0.1776
     48 N           4.4095    6.4016    0.6834 N.2     1  LIG1       -0.1875
     49 O           2.3467   -0.8907    2.0178 O.2     1  LIG1       -0.2688
     50 O           3.6414    5.1316   -1.5624 O.2     1  LIG1       -0.2685
     51 O           3.3731    4.3115    3.4186 O.3     1  LIG1       -0.3982
     52 H           3.0630    5.0238    3.8413 H       1  LIG1        0.2090
@<TRIPOS>BOND
     1    20    19    1
     2    22    21    1
     3    50    25    2
     4    19    21   ar
     5    19    18   ar
     6    21    23   ar
     7    25    18    1
     8    25    46   am
     9    18    16   ar
    10    23    24    1
    11    23    15   ar
    12    38    37    1
    13    36    35    1
    14    15    16   ar
    15    15    14    1
    16    16    17    1
    17    48    46    1
    18    48    26    2
    19    46    47    1
    20    37    35   ar
    21    37    28   ar
    22    35    33   ar
    23    14    49    2
    24    14    44   am
    25    26    28    1
    26    26    27    1
    27    45    44    1
    28    28    29   ar
    29    44    43    1
    30    33    34    1
    31    33    31   ar
    32    29    31   ar
    33    29    30    1
    34    43    12    1
    35    51    52    1
    36    51    39    1
    37    13    12    1
    38    31    32    1
    39    40    39    1
    40    12     1    1
    41    39    42    1
    42    39    41    1
    43     1     2   ar
    44     1    10   ar
    45     3     2    1
    46    11    10    1
    47     2     4   ar
    48    10     8   ar
    49     4     5    1
    50     4     6   ar
    51     8     9    1
    52     8     6   ar
    53     6     7    1
