@<TRIPOS>MOLECULE
3-Ethylsulfonyl-2-phenylquinoxaline 1,4-dioxide
 37 39 0 0 0
SMALL
GASTEIGER

@<TRIPOS>ATOM
      1 S          -1.0920    1.6428    7.4513 S.O2    1  LIG1        0.0172
      2 O           1.4822    1.0137    8.4324 O.3     1  LIG1       -0.1619
      3 O           1.6576    5.5718    5.6637 O.3     1  LIG1       -0.1632
      4 O          -1.2685    1.6777    8.8644 O.2     1  LIG1       -0.1678
      5 O          -2.1114    2.2032    6.6424 O.2     1  LIG1       -0.1678
      6 N           1.5246    2.0688    7.7151 N.ar    1  LIG1       -0.1106
      7 N           1.6133    4.4365    6.2557 N.ar    1  LIG1       -0.1266
      8 C           0.4251    2.5533    7.0921 C.ar    1  LIG1        0.2246
      9 C           2.7340    2.7391    7.5598 C.ar    1  LIG1        0.1137
     10 C           3.8938    2.2084    8.1462 C.ar    1  LIG1       -0.0326
     11 C           5.0645    2.8857    7.9905 C.ar    1  LIG1       -0.0596
     12 C           5.1073    4.0867    7.3018 C.ar    1  LIG1       -0.0596
     13 C           3.9874    4.6260    6.7404 C.ar    1  LIG1       -0.0326
     14 C           2.7742    3.9333    6.8542 C.ar    1  LIG1        0.1124
     15 C           0.4654    3.7232    6.3134 C.ar    1  LIG1        0.1374
     16 C          -0.6502    4.2462    5.4774 C.ar    1  LIG1        0.0054
     17 C          -1.5823    5.1249    5.9821 C.ar    1  LIG1       -0.0524
     18 C          -2.5747    5.6230    5.1544 C.ar    1  LIG1       -0.0611
     19 C          -2.6236    5.2235    3.8358 C.ar    1  LIG1       -0.0617
     20 C          -1.7066    4.3439    3.3379 C.ar    1  LIG1       -0.0611
     21 C          -0.7021    3.8536    4.1487 C.ar    1  LIG1       -0.0524
     22 C          -0.7921   -0.0069    6.9019 C.3     1  LIG1        0.0699
     23 C          -0.3984   -0.0557    5.4541 C.3     1  LIG1       -0.0453
     24 H           3.8641    1.4128    8.6274 H       1  LIG1        0.0640
     25 H           5.8462    2.5367    8.3535 H       1  LIG1        0.0618
     26 H           5.9178    4.5351    7.2164 H       1  LIG1        0.0618
     27 H           4.0247    5.4404    6.2942 H       1  LIG1        0.0640
     28 H          -1.5465    5.3821    6.8749 H       1  LIG1        0.0624
     29 H          -3.2013    6.2249    5.4846 H       1  LIG1        0.0618
     30 H          -3.2882    5.5587    3.2797 H       1  LIG1        0.0618
     31 H          -1.7628    4.0687    2.4511 H       1  LIG1        0.0618
     32 H          -0.0667    3.2672    3.8084 H       1  LIG1        0.0624
     33 H          -0.0854   -0.3995    7.4382 H       1  LIG1        0.0502
     34 H          -1.5948   -0.5375    7.0309 H       1  LIG1        0.0502
     35 H           0.3717    0.5007    5.3165 H       1  LIG1        0.0245
     36 H          -1.1251    0.2649    4.9161 H       1  LIG1        0.0245
     37 H          -0.1898   -0.9593    5.2056 H       1  LIG1        0.0245
@<TRIPOS>BOND
     1    31    20    1
     2    30    19    1
     3    20    19   ar
     4    20    21   ar
     5    32    21    1
     6    19    18   ar
     7    21    16   ar
     8    36    23    1
     9    18    29    1
    10    18    17   ar
    11    37    23    1
    12    35    23    1
    13    23    22    1
    14    16    17   ar
    15    16    15    1
    16     3     7    1
    17    17    28    1
    18     7    15   ar
    19     7    14   ar
    20    27    13    1
    21    15     8   ar
    22     5     1    2
    23    13    14   ar
    24    13    12   ar
    25    14     9   ar
    26    22    34    1
    27    22    33    1
    28    22     1    1
    29     8     1    1
    30     8     6   ar
    31    26    12    1
    32    12    11   ar
    33     1     4    2
    34     9     6   ar
    35     9    10   ar
    36     6     2    1
    37    11    10   ar
    38    11    25    1
    39    10    24    1
