@<TRIPOS>MOLECULE
N-[4-(Morpholinocarbonylmethoxy)phenyl]acetamide monohydrate
 41 41 0 0 0
SMALL
GASTEIGER

@<TRIPOS>ATOM
      1 N           4.8481   -2.8761    6.8694 N.am    1  LIG1       -0.2857
      2 H           5.3152   -2.8124    7.6038 H       1  LIG1        0.1548
      3 C           4.5655   -1.6233    6.2537 C.ar    1  LIG1        0.0336
      4 C           4.2428   -1.4716    4.9152 C.ar    1  LIG1       -0.0370
      5 H           4.1681   -2.2201    4.3683 H       1  LIG1        0.0637
      6 C           4.0327   -0.2110    4.3922 C.ar    1  LIG1       -0.0182
      7 H           3.8140   -0.1185    3.4926 H       1  LIG1        0.0655
      8 C           4.1426    0.9129    5.1865 C.ar    1  LIG1        0.1213
      9 C           4.4651    0.7672    6.5212 C.ar    1  LIG1       -0.0182
     10 H           4.5405    1.5161    7.0683 H       1  LIG1        0.0655
     11 C           4.6759   -0.4978    7.0413 C.ar    1  LIG1       -0.0370
     12 H           4.8963   -0.5906    7.9406 H       1  LIG1        0.0637
     13 O           3.9339    2.1251    4.5610 O.3     1  LIG1       -0.4828
     14 C           4.0262    3.2733    5.3794 C.3     1  LIG1        0.1653
     15 H           4.8990    3.3104    5.8019 H       1  LIG1        0.0795
     16 H           3.3508    3.2417    6.0747 H       1  LIG1        0.0795
     17 C           3.8182    4.4968    4.5051 C.2     1  LIG1        0.2533
     18 O           3.6332    4.3991    3.2970 O.2     1  LIG1       -0.2719
     19 N           3.8859    5.6834    5.1393 N.am    1  LIG1       -0.2943
     20 C           3.5573    6.9168    4.4218 C.3     1  LIG1        0.0383
     21 H           2.6163    7.1221    4.5400 H       1  LIG1        0.0487
     22 H           3.7226    6.7959    3.4735 H       1  LIG1        0.0487
     23 C           4.3913    8.0534    4.9410 C.3     1  LIG1        0.0635
     24 H           5.3225    7.8913    4.7219 H       1  LIG1        0.0575
     25 H           4.1208    8.8752    4.5007 H       1  LIG1        0.0575
     26 O           4.2638    8.2136    6.3477 O.3     1  LIG1       -0.3767
     27 C           4.7014    7.0285    6.9990 C.3     1  LIG1        0.0635
     28 H           4.6398    7.1496    7.9597 H       1  LIG1        0.0575
     29 H           5.6324    6.8680    6.7775 H       1  LIG1        0.0575
     30 C           3.8876    5.8392    6.5993 C.3     1  LIG1        0.0383
     31 H           4.2549    5.0411    7.0110 H       1  LIG1        0.0487
     32 H           2.9767    5.9494    6.9145 H       1  LIG1        0.0487
     33 C           4.4341   -4.0911    6.4904 C.2     1  LIG1        0.2141
     34 O           3.7429   -4.2810    5.4880 O.2     1  LIG1       -0.2758
     35 C           4.8503   -5.2272    7.3771 C.3     1  LIG1        0.0125
     36 H           4.1154   -5.4807    7.9394 H       1  LIG1        0.0323
     37 H           5.5912   -4.9518    7.9226 H       1  LIG1        0.0323
     38 H           5.1121   -5.9752    6.8359 H       1  LIG1        0.0323
     39 O           5.7006    2.5946    2.1830 O.3     2  HOH2       -0.4105
     40 H           5.0164    2.8966    2.5597 H       0  HOH0        0.2052
     41 H           5.8306    3.1301    1.4819 H       0  HOH0        0.2052
@<TRIPOS>BOND
     1    41    39    1
     2    39    40    1
     3    18    17    2
     4    22    20    1
     5     7     6    1
     6     5     4    1
     7     6     4   ar
     8     6     8   ar
     9    20    21    1
    10    20    23    1
    11    20    19    1
    12    25    23    1
    13    17    19   am
    14    17    14    1
    15    13     8    1
    16    13    14    1
    17    24    23    1
    18     4     3   ar
    19    23    26    1
    20    19    30    1
    21     8     9   ar
    22    14    15    1
    23    14    16    1
    24    34    33    2
    25     3     1    1
    26     3    11   ar
    27    26    27    1
    28    33     1   am
    29    33    35    1
    30     9    11   ar
    31     9    10    1
    32    30    32    1
    33    30    27    1
    34    30    31    1
    35    29    27    1
    36    38    35    1
    37     1     2    1
    38    27    28    1
    39    11    12    1
    40    35    37    1
    41    35    36    1
