@<TRIPOS>MOLECULE
Glyoxal 3-nitrophenylhydrazone
 21 21 0 0 0
SMALL
GASTEIGER

@<TRIPOS>ATOM
      1 N           1.2349    3.0999    0.9672 N.pl3   1  LIG1       -0.2376
      2 N           2.2382    3.7696    0.4044 N.2     1  LIG1       -0.1873
      3 C           1.9901    4.4345   -0.6780 C.2     1  LIG1        0.0847
      4 C           3.1289    5.1201   -1.2443 C.2     1  LIG1        0.1626
      5 O           3.0912    5.8396   -2.2333 O.2     1  LIG1       -0.2947
      6 C           1.4323    2.4405    2.1809 C.ar    1  LIG1        0.0504
      7 C           2.6895    2.4020    2.7932 C.ar    1  LIG1       -0.0089
      8 C           2.7899    1.7430    3.9989 C.ar    1  LIG1        0.1280
      9 N           4.1126    1.6995    4.6464 N.pl3   1  LIG1        0.0565
     10 O           5.0228    2.3541    4.1458 O.2     1  LIG1       -0.1261
     11 O           4.2477    1.0121    5.6539 O.2     1  LIG1       -0.1261
     12 C           1.7267    1.1157    4.6256 C.ar    1  LIG1       -0.0314
     13 C           0.4917    1.1473    3.9822 C.ar    1  LIG1       -0.0578
     14 C           0.3423    1.8061    2.7777 C.ar    1  LIG1       -0.0390
     15 H           0.4355    3.1772    0.6014 H       1  LIG1        0.1744
     16 H           1.1257    4.4683   -1.0709 H       1  LIG1        0.0878
     17 H           3.9691    5.0041   -0.8168 H       1  LIG1        0.1092
     18 H           3.4456    2.8154    2.3929 H       1  LIG1        0.0659
     19 H           1.8355    0.6801    5.4632 H       1  LIG1        0.0640
     20 H          -0.2548    0.7118    4.3756 H       1  LIG1        0.0619
     21 H          -0.5070    1.8268    2.3531 H       1  LIG1        0.0637
@<TRIPOS>BOND
     1     5     4    2
     2     4    17    1
     3     4     3    1
     4    16     3    1
     5     3     2    2
     6     2     1    1
     7    15     1    1
     8     1     6    1
     9     6    14   ar
    10     6     7   ar
    11    21    14    1
    12    18     7    1
    13    14    13   ar
    14     7     8   ar
    15    13    20    1
    16    13    12   ar
    17     8    12   ar
    18     8     9    1
    19    10     9    2
    20    12    19    1
    21     9    11    2
