@<TRIPOS>MOLECULE
1,3-Bis(4-methoxyphenyl)thiourea
 19 19 0 0 0
SMALL
GASTEIGER

@<TRIPOS>ATOM
      1 S           2.5330    7.9070    3.2805 S.3     1  LIG1       -0.0585
      2 O           2.8205    1.5858    2.9767 O.3     1  LIG1       -0.4951
      3 N           4.4882    6.7798    1.8628 N.pl3   1  LIG1       -0.3241
      4 C           3.9042    7.9070    2.2883 C.3     1  LIG1        0.1574
      5 C           4.0525    5.4593    2.2009 C.ar    1  LIG1        0.0285
      6 C           3.1542    4.8097    1.3770 C.ar    1  LIG1       -0.0374
      7 C           2.7506    3.5208    1.6770 C.ar    1  LIG1       -0.0182
      8 C           3.2705    2.8706    2.7804 C.ar    1  LIG1        0.1202
      9 C           4.1781    3.5139    3.6007 C.ar    1  LIG1       -0.0182
     10 C           4.5540    4.8201    3.3117 C.ar    1  LIG1       -0.0374
     11 C           3.3725    0.8587    4.0611 C.3     1  LIG1        0.0788
     12 H           5.0815    6.8411    1.3283 H       1  LIG1        0.1476
     13 H           2.8315    5.2344    0.6350 H       1  LIG1        0.0637
     14 H           2.1657    3.1027    1.1589 H       1  LIG1        0.0655
     15 H           4.5169    3.1312    4.3659 H       1  LIG1        0.0655
     16 H           5.1742    5.2534    3.8632 H       1  LIG1        0.0637
     17 H           3.1770    1.3315    4.9745 H       1  LIG1        0.0660
     18 H           4.3652    0.7780    3.9902 H       1  LIG1        0.0660
     19 H           2.9832    0.0127    4.0484 H       1  LIG1        0.0660
@<TRIPOS>BOND
     1    13     6    1
     2    14     7    1
     3    12     3    1
     4     6     7   ar
     5     6     5   ar
     6     7     8   ar
     7     3     5    1
     8     3     4    1
     9     5    10   ar
    10     4     1    1
    11     8     2    1
    12     8     9   ar
    13     2    11    1
    14    10     9   ar
    15    10    16    1
    16     9    15    1
    17    18    11    1
    18    19    11    1
    19    11    17    1
