@<TRIPOS>MOLECULE
1-(4-Chlorophenyl)-3-(4-methoxyphenyl)prop-2-en-1-one
 32 33 0 0 0
SMALL
GASTEIGER

@<TRIPOS>ATOM
      1 C           2.5090    5.1199    1.1596 C.ar    1  LIG1       -0.0496
      2 H           3.3967    5.3972    0.9645 H       1  LIG1        0.0625
      3 C           1.6257    6.0149    1.7445 C.ar    1  LIG1       -0.0427
      4 H           1.9009    6.8999    1.9493 H       1  LIG1        0.0632
      5 C           0.3354    5.5940    2.0250 C.ar    1  LIG1        0.0410
      6 C          -0.0887    4.3068    1.7433 C.ar    1  LIG1       -0.0427
      7 H          -0.9742    4.0300    1.9505 H       1  LIG1        0.0632
      8 C           0.8036    3.4323    1.1545 C.ar    1  LIG1       -0.0496
      9 H           0.5217    2.5478    0.9496 H       1  LIG1        0.0625
     10 C           2.1076    3.8166    0.8540 C.ar    1  LIG1        0.0217
     11 C           3.0117    2.8180    0.2025 C.2     1  LIG1        0.1861
     12 C           4.4717    3.0502    0.2354 C.2     1  LIG1       -0.0138
     13 H           4.8247    3.7821    0.7290 H       1  LIG1        0.0656
     14 C           5.3001    2.2304   -0.4301 C.2     1  LIG1       -0.0510
     15 H           4.8875    1.5563   -0.9559 H       1  LIG1        0.0625
     16 C           6.7612    2.2527   -0.4431 C.ar    1  LIG1       -0.0247
     17 C           7.4323    1.1760   -1.0248 C.ar    1  LIG1       -0.0511
     18 H           6.9229    0.4932   -1.4456 H       1  LIG1        0.0625
     19 C           8.8167    1.0664   -1.0107 C.ar    1  LIG1       -0.0194
     20 H           9.2481    0.3143   -1.3982 H       1  LIG1        0.0654
     21 C           9.5577    2.0835   -0.4160 C.ar    1  LIG1        0.1201
     22 C           8.9141    3.1962    0.1332 C.ar    1  LIG1       -0.0194
     23 H           9.4276    3.9022    0.5089 H       1  LIG1        0.0654
     24 C           7.5344    3.2744    0.1324 C.ar    1  LIG1       -0.0511
     25 H           7.1050    4.0249    0.5246 H       1  LIG1        0.0625
     26 C          11.6040    0.9596   -0.8963 C.3     1  LIG1        0.0788
     27 H          12.5692    1.0605   -0.7608 H       1  LIG1        0.0660
     28 H          11.4118    0.9123   -1.8561 H       1  LIG1        0.0660
     29 H          11.2977    0.1380   -0.4611 H       1  LIG1        0.0660
     30 O           2.5259    1.8187   -0.3279 O.2     1  LIG1       -0.2873
     31 O          10.9200    2.0845   -0.3271 O.3     1  LIG1       -0.4951
     32 CL         -0.7895    6.7182    2.7366 Cl      1  LIG1       -0.0835
@<TRIPOS>BOND
     1    28    26    1
     2    18    17    1
     3    20    19    1
     4    17    19   ar
     5    17    16   ar
     6    19    21   ar
     7    15    14    1
     8    26    27    1
     9    26    29    1
    10    26    31    1
    11    16    14    1
    12    16    24   ar
    13    14    12    2
    14    21    31    1
    15    21    22   ar
    16    30    11    2
    17    24    22   ar
    18    24    25    1
    19    22    23    1
    20    11    12    1
    21    11    10    1
    22    12    13    1
    23    10     8   ar
    24    10     1   ar
    25     9     8    1
    26     2     1    1
    27     8     6   ar
    28     1     3   ar
    29     6     7    1
    30     6     5   ar
    31     3     4    1
    32     3     5   ar
    33     5    32    1
