@<TRIPOS>MOLECULE
3-(2-Furyl)-1-(4-methoxyphenyl)prop-2-en-1-one
 29 30 0 0 0
SMALL
GASTEIGER

@<TRIPOS>ATOM
      1 O          -5.8811   13.9845    7.4272 O.2     1  LIG1       -0.4635
      2 O          -2.4105   10.6401    8.9488 O.2     1  LIG1       -0.2873
      3 O           1.5682   11.1587    4.0249 O.3     1  LIG1       -0.4951
      4 C          -7.0616   14.6682    7.5236 C.ar    1  LIG1        0.0925
      5 H          -7.3057   15.3810    6.9776 H       1  LIG1        0.1029
      6 C          -7.8223   14.1690    8.5179 C.ar    1  LIG1       -0.0233
      7 H          -8.6635   14.4673    8.7786 H       1  LIG1        0.0649
      8 C          -7.0817   13.0934    9.0917 C.ar    1  LIG1       -0.0165
      9 H          -7.3492   12.5491    9.7975 H       1  LIG1        0.0655
     10 C          -5.9066   13.0147    8.4074 C.ar    1  LIG1        0.1278
     11 C          -4.7531   12.1704    8.5409 C.2     1  LIG1       -0.0157
     12 H          -4.7275   11.5844    9.2626 H       1  LIG1        0.0655
     13 C          -3.7084   12.1661    7.6977 C.2     1  LIG1       -0.0109
     14 H          -3.7207   12.7323    6.9601 H       1  LIG1        0.0657
     15 C          -2.5385   11.2867    7.9107 C.2     1  LIG1        0.1862
     16 C          -1.5047   11.2164    6.8369 C.ar    1  LIG1        0.0219
     17 C          -1.4054   12.1717    5.8148 C.ar    1  LIG1       -0.0475
     18 H          -2.0440   12.8455    5.7512 H       1  LIG1        0.0626
     19 C          -0.3677   12.1247    4.8992 C.ar    1  LIG1       -0.0193
     20 H          -0.3088   12.7700    4.2323 H       1  LIG1        0.0654
     21 C           0.5909   11.1117    4.9731 C.ar    1  LIG1        0.1201
     22 C           0.4993   10.1379    5.9737 C.ar    1  LIG1       -0.0193
     23 H           1.1264    9.4529    6.0246 H       1  LIG1        0.0654
     24 C          -0.5419   10.2066    6.8917 C.ar    1  LIG1       -0.0475
     25 H          -0.5984    9.5624    7.5602 H       1  LIG1        0.0626
     26 C           2.6469   10.2113    4.1393 C.3     1  LIG1        0.0788
     27 H           3.2776   10.3572    3.4296 H       1  LIG1        0.0660
     28 H           2.2975    9.3189    4.0781 H       1  LIG1        0.0660
     29 H           3.0858   10.3251    4.9850 H       1  LIG1        0.0660
@<TRIPOS>BOND
     1    27    26    1
     2     3    26    1
     3     3    21    1
     4    28    26    1
     5    26    29    1
     6    20    19    1
     7    19    21   ar
     8    19    17   ar
     9    21    22   ar
    10    18    17    1
    11    17    16   ar
    12    22    23    1
    13    22    24   ar
    14    16    24   ar
    15    16    15    1
    16    24    25    1
    17    14    13    1
    18     5     4    1
    19     1     4   ar
    20     1    10   ar
    21     4     6   ar
    22    13    15    1
    23    13    11    2
    24    15     2    2
    25    10    11    1
    26    10     8   ar
    27     6     7    1
    28     6     8   ar
    29    11    12    1
    30     8     9    1
