@<TRIPOS>MOLECULE
5-Formyl-2,3-dihydroisocoumarin
 21 22 0 0 0
SMALL
GASTEIGER

@<TRIPOS>ATOM
      1 O           0.6067   -4.0149   -2.4539 O.3     1  LIG1       -0.4608
      2 O           0.2071   -4.1049   -4.5958 O.2     1  LIG1       -0.2450
      3 O           5.5589   -2.5839   -1.1644 O.2     1  LIG1       -0.2957
      4 C           4.4288   -2.3475   -3.2656 C.ar    1  LIG1        0.0182
      5 C           4.6622   -1.8961   -4.5661 C.ar    1  LIG1       -0.0512
      6 H           5.4813   -1.5066   -4.7702 H       1  LIG1        0.0624
      7 C           3.7086   -2.0147   -5.5506 C.ar    1  LIG1       -0.0603
      8 H           3.8798   -1.7035   -6.4093 H       1  LIG1        0.0618
      9 C           2.5043   -2.5959   -5.2525 C.ar    1  LIG1       -0.0475
     10 H           1.8614   -2.6940   -5.9181 H       1  LIG1        0.0626
     11 C           0.9384   -3.7363   -3.7229 C.2     1  LIG1        0.3395
     12 C           1.3122   -3.3259   -1.3888 C.3     1  LIG1        0.0968
     13 H           1.0783   -3.7275   -0.5385 H       1  LIG1        0.0701
     14 H           1.0331   -2.3973   -1.3685 H       1  LIG1        0.0701
     15 C           2.8026   -3.3910   -1.5732 C.3     1  LIG1        0.0082
     16 H           3.1058   -4.3047   -1.4526 H       1  LIG1        0.0346
     17 H           3.2379   -2.8383   -0.9062 H       1  LIG1        0.0346
     18 C           3.1810   -2.9127   -2.9472 C.ar    1  LIG1       -0.0200
     19 C           2.2378   -3.0393   -3.9633 C.ar    1  LIG1        0.0629
     20 C           5.5300   -2.1799   -2.2940 C.2     1  LIG1        0.1505
     21 H           6.2783   -1.7124   -2.5874 H       1  LIG1        0.1081
@<TRIPOS>BOND
     1     8     7    1
     2    10     9    1
     3     7     9   ar
     4     7     5   ar
     5     9    19   ar
     6     6     5    1
     7     2    11    2
     8     5     4   ar
     9    19    11    1
    10    19    18   ar
    11    11     1    1
    12     4    18   ar
    13     4    20    1
    14    18    15    1
    15    21    20    1
    16     1    12    1
    17    20     3    2
    18    15    16    1
    19    15    12    1
    20    15    17    1
    21    12    14    1
    22    12    13    1
