@<TRIPOS>MOLECULE
4-Dimethylaminobenzoic(4-chloro-2-phenyl-2H-chromen-3-ylmethylene)hydrazide
 62 64 0 0 0
SMALL
GASTEIGER

@<TRIPOS>ATOM
      1 C           4.8481    4.3900    2.4296 C.ar    1  LIG1       -0.0530
      2 H           4.1862    4.2157    1.7854 H       1  LIG1        0.0622
      3 C           4.7590    5.5251    3.2053 C.ar    1  LIG1       -0.0612
      4 H           4.0443    6.1235    3.0854 H       1  LIG1        0.0618
      5 C           5.7154    5.7738    4.1504 C.ar    1  LIG1       -0.0583
      6 H           5.6514    6.5454    4.6840 H       1  LIG1        0.0619
      7 C           6.7751    4.9067    4.3314 C.ar    1  LIG1       -0.0196
      8 H           7.4202    5.0812    4.9920 H       1  LIG1        0.0654
      9 C           6.8822    3.7868    3.5427 C.ar    1  LIG1        0.1271
     10 C           5.9076    3.4948    2.5859 C.ar    1  LIG1        0.0215
     11 C           6.1458    2.3360    1.7502 C.3     1  LIG1        0.1265
     12 C           7.1691    1.4977    1.9547 C.2     1  LIG1        0.0193
     13 C           8.0460    1.6863    3.1560 C.3     1  LIG1        0.1498
     14 H           8.9760    1.5078    2.8680 H       1  LIG1        0.0834
     15 C           7.4842    0.4059    1.0684 C.2     1  LIG1        0.0393
     16 H           6.9590    0.2547    0.3033 H       1  LIG1        0.0818
     17 C           7.7445    0.7408    4.3032 C.ar    1  LIG1       -0.0031
     18 C           8.7917    0.2023    4.9990 C.ar    1  LIG1       -0.0548
     19 H           9.6719    0.3520    4.7052 H       1  LIG1        0.0622
     20 C           8.5690   -0.5618    6.1333 C.ar    1  LIG1       -0.0614
     21 H           9.2934   -0.9224    6.6117 H       1  LIG1        0.0618
     22 C           7.2797   -0.7852    6.5517 C.ar    1  LIG1       -0.0617
     23 H           7.1216   -1.2868    7.3310 H       1  LIG1        0.0618
     24 C           6.2277   -0.2857    5.8441 C.ar    1  LIG1       -0.0614
     25 H           5.3481   -0.4681    6.1215 H       1  LIG1        0.0618
     26 C           6.4503    0.4885    4.7181 C.ar    1  LIG1       -0.0548
     27 H           5.7236    0.8423    4.2373 H       1  LIG1        0.0622
     28 C           9.6759   -2.2639    0.6183 C.2     1  LIG1        0.2615
     29 C           9.7393   -3.3712   -0.3479 C.ar    1  LIG1        0.0383
     30 C           8.7325   -3.6636   -1.2612 C.ar    1  LIG1       -0.0478
     31 H           7.9726   -3.1114   -1.3012 H       1  LIG1        0.0626
     32 C           8.8252   -4.7413   -2.1040 C.ar    1  LIG1       -0.0400
     33 H           8.1316   -4.9051   -2.7175 H       1  LIG1        0.0636
     34 C           9.9218   -5.5973   -2.0722 C.ar    1  LIG1        0.0292
     35 C          10.9362   -5.3130   -1.1425 C.ar    1  LIG1       -0.0400
     36 H          11.6906   -5.8717   -1.0884 H       1  LIG1        0.0636
     37 C          10.8343   -4.2249   -0.3103 C.ar    1  LIG1       -0.0478
     38 H          11.5256   -4.0530    0.3021 H       1  LIG1        0.0626
     39 C          11.0212   -7.6860   -2.7117 C.3     1  LIG1        0.0004
     40 H          11.9076   -7.2956   -2.7657 H       1  LIG1        0.0428
     41 H          10.9273   -8.3715   -3.3910 H       1  LIG1        0.0428
     42 H          10.8934   -8.0796   -1.8348 H       1  LIG1        0.0428
     43 C           9.0088   -6.9055   -3.9188 C.3     1  LIG1        0.0004
     44 H           8.2237   -7.2794   -3.4898 H       1  LIG1        0.0428
     45 H           9.3458   -7.5325   -4.5782 H       1  LIG1        0.0428
     46 H           8.7726   -6.0722   -4.3561 H       1  LIG1        0.0428
     47 C          12.4862   -0.7619    4.0881 C.3     1  LIG1       -0.0418
     48 H          12.1179   -0.1633    4.7569 H       1  LIG1        0.0252
     49 H          13.3532   -1.0818    4.3831 H       1  LIG1        0.0252
     50 H          11.8885   -1.5160    3.9646 H       1  LIG1        0.0252
     51 C          12.6371   -0.0423    2.8139 C.3     1  LIG1        0.0414
     52 H          13.2056    0.7428    2.9609 H       1  LIG1        0.0554
     53 H          13.0959   -0.6265    2.1745 H       1  LIG1        0.0554
     54 N           8.4786   -0.3585    1.3213 N.pl3   1  LIG1       -0.1569
     55 N           8.6816   -1.3504    0.4080 N.am    1  LIG1       -0.2122
     56 H           8.1834   -1.4006   -0.3033 H       1  LIG1        0.1750
     57 N          10.0282   -6.6565   -2.9268 N.pl3   1  LIG1       -0.3360
     58 O           8.0120    3.0431    3.6709 O.3     1  LIG1       -0.4794
     59 O          10.4477   -2.1595    1.5600 O.2     1  LIG1       -0.2686
     60 O          11.4196    0.3803    2.2464 O.3     1  LIG1       -0.3953
     61 H          10.9464   -0.2817    2.0816 H       1  LIG1        0.2094
     62 CL          5.0754    2.1206    0.3974 Cl      1  LIG1       -0.1054
@<TRIPOS>BOND
     1    45    43    1
     2    46    43    1
     3    43    44    1
     4    43    57    1
     5    41    39    1
     6    57    39    1
     7    57    34    1
     8    40    39    1
     9    33    32    1
    10    39    42    1
    11    32    34   ar
    12    32    30   ar
    13    34    35   ar
    14    31    30    1
    15    30    29   ar
    16    35    36    1
    17    35    37   ar
    18    29    37   ar
    19    29    28    1
    20    37    38    1
    21    56    55    1
    22    16    15    1
    23    62    11    1
    24    55    28   am
    25    55    54    1
    26    28    59    2
    27    15    54    1
    28    15    12    2
    29    11    12    1
    30    11    10    1
    31     2     1    1
    32    12    13    1
    33    61    60    1
    34    53    51    1
    35    60    51    1
    36     1    10   ar
    37     1     3   ar
    38    10     9   ar
    39    51    52    1
    40    51    47    1
    41    14    13    1
    42     4     3    1
    43    13    58    1
    44    13    17    1
    45     3     5   ar
    46     9    58    1
    47     9     7   ar
    48    50    47    1
    49    47    49    1
    50    47    48    1
    51     5     7   ar
    52     5     6    1
    53    27    26    1
    54    17    26   ar
    55    17    18   ar
    56     7     8    1
    57    19    18    1
    58    26    24   ar
    59    18    20   ar
    60    24    25    1
    61    24    22   ar
    62    20    22   ar
    63    20    21    1
    64    22    23    1
