@<TRIPOS>MOLECULE
Ethylammonium saccharinate
 27 27 0 0 0
SMALL
GASTEIGER

@<TRIPOS>ATOM
      1 S           6.7096    2.5168    6.0455 S.O2    1  LIG1        0.0952
      2 N           6.4056    3.6051    4.9120 N.am    1  LIG1       -0.0549
      3 N           6.1874   11.4177    2.7036 N.4     1  LIG1        0.2183
      4 H           5.9701   12.2724    2.5795 H       1  LIG1        0.1994
      5 H           6.7209   11.1488    2.0436 H       1  LIG1        0.1994
      6 H           6.6098   11.3295    3.4820 H       1  LIG1        0.1994
      7 O           6.8409    1.1844    5.4991 O.2     1  LIG1       -0.1482
      8 O           7.8409    2.9037    6.8557 O.2     1  LIG1       -0.1482
      9 O           4.7237    5.0676    4.3740 O.2     1  LIG1       -0.2667
     10 C           5.2002    2.6854    6.9543 C.ar    1  LIG1        0.1226
     11 C           4.7585    2.0646    8.1103 C.ar    1  LIG1       -0.0343
     12 H           5.2728    1.4245    8.5470 H       1  LIG1        0.0637
     13 C           3.5193    2.4408    8.5821 C.ar    1  LIG1       -0.0599
     14 H           3.1877    2.0441    9.3547 H       1  LIG1        0.0618
     15 C           2.7539    3.4018    7.9269 C.ar    1  LIG1       -0.0609
     16 H           1.9235    3.6403    8.2723 H       1  LIG1        0.0618
     17 C           3.2109    4.0084    6.7662 C.ar    1  LIG1       -0.0476
     18 H           2.6965    4.6438    6.3225 H       1  LIG1        0.0626
     19 C           4.4542    3.6403    6.2897 C.ar    1  LIG1        0.0666
     20 C           5.1957    4.1751    5.0923 C.2     1  LIG1        0.2864
     21 C           4.0136   11.0051    3.7861 C.3     1  LIG1       -0.0246
     22 H           4.4534   10.9501    4.6377 H       1  LIG1        0.0281
     23 H           3.2497   10.4225    3.7831 H       1  LIG1        0.0281
     24 H           3.7277   11.9076    3.6316 H       1  LIG1        0.0281
     25 C           4.9572   10.5916    2.7124 C.3     1  LIG1       -0.0383
     26 H           5.1990    9.6614    2.8405 H       1  LIG1        0.0810
     27 H           4.5153   10.6683    1.8520 H       1  LIG1        0.0810
@<TRIPOS>BOND
     1    27    25    1
     2     5     3    1
     3     4     3    1
     4     3    25    1
     5     3     6    1
     6    25    26    1
     7    25    21    1
     8    24    21    1
     9    23    21    1
    10    21    22    1
    11     9    20    2
    12     2    20   am
    13     2     1    1
    14    20    19    1
    15     7     1    2
    16     1     8    2
    17     1    10    1
    18    19    17   ar
    19    19    10   ar
    20    18    17    1
    21    17    15   ar
    22    10    11   ar
    23    15    16    1
    24    15    13   ar
    25    11    12    1
    26    11    13   ar
    27    13    14    1
