@<TRIPOS>MOLECULE
1,2,4,5-Tetrafluoro-3,6-bis(nitromethyl)benzene
 11 10 0 0 0
SMALL
GASTEIGER

@<TRIPOS>ATOM
      1 F          16.2121    1.0979    3.2184 F       1  LIG1       -0.2293
      2 F          12.9780    4.4891    3.4387 F       1  LIG1       -0.2024
      3 N          12.7521    1.1113    3.8124 N.pl3   1  LIG1        0.0267
      4 C          14.5429    2.7457    3.2772 C.2     1  LIG1        0.0379
      5 C          14.2321    4.0508    3.5881 C.2     1  LIG1        0.1629
      6 C          15.8499    2.3617    3.4737 C.3     1  LIG1        0.2192
      7 C          13.5192    1.8028    2.7315 C.3     1  LIG1        0.1265
      8 H          12.9008    2.2947    2.1685 H       1  LIG1        0.0607
      9 H          13.9612    1.1382    2.1798 H       1  LIG1        0.0607
     10 O          12.9524    1.3991    4.9580 O.2     1  LIG1       -0.1314
     11 O          11.9675    0.2733    3.4654 O.2     1  LIG1       -0.1314
@<TRIPOS>BOND
     1     8     7    1
     2     9     7    1
     3     7     4    1
     4     7     3    1
     5     1     6    1
     6     4     6    1
     7     4     5    2
     8     2     5    1
     9    11     3    2
    10     3    10    2
