@<TRIPOS>MOLECULE
N-(1-Cyano-1-methylethyl)-1,2,3-benzothiadiazole-7-carboxamide
 27 28 0 0 0
SMALL
GASTEIGER

@<TRIPOS>ATOM
      1 S           7.4984    6.9631    5.0625 S.2     1  LIG1        0.0373
      2 O           7.2158    4.2336    5.2508 O.2     1  LIG1       -0.2701
      3 N           7.3578    8.5925    4.5849 N.ar    1  LIG1       -0.1094
      4 N           6.6507    8.7483    3.5352 N.ar    1  LIG1       -0.1411
      5 N           6.2950    2.7429    3.8358 N.am    1  LIG1       -0.2937
      6 H           6.0003    2.5394    3.0923 H       1  LIG1        0.1505
      7 N           5.6900    1.9396    7.0815 N.1     1  LIG1       -0.1943
      8 C           6.5405    6.4232    3.7496 C.ar    1  LIG1        0.0716
      9 C           6.1488    7.5543    3.0202 C.ar    1  LIG1        0.1026
     10 C           5.3247    7.4232    1.9232 C.ar    1  LIG1       -0.0333
     11 H           5.0594    8.1740    1.4408 H       1  LIG1        0.0640
     12 C           4.9028    6.1732    1.5505 C.ar    1  LIG1       -0.0589
     13 H           4.3361    6.0759    0.8193 H       1  LIG1        0.0618
     14 C           5.3166    5.0420    2.2638 C.ar    1  LIG1       -0.0484
     15 H           5.0297    4.2027    1.9854 H       1  LIG1        0.0625
     16 C           6.1379    5.1352    3.3671 C.ar    1  LIG1        0.0540
     17 C           6.5995    3.9977    4.2190 C.2     1  LIG1        0.2464
     18 C           6.5905    1.5660    4.6582 C.3     1  LIG1        0.1158
     19 C           8.0955    1.2894    4.7377 C.3     1  LIG1       -0.0306
     20 H           8.4293    1.0815    3.8617 H       1  LIG1        0.0260
     21 H           8.2529    0.5472    5.3247 H       1  LIG1        0.0260
     22 H           8.5462    2.0657    5.0765 H       1  LIG1        0.0260
     23 C           5.8402    0.3705    4.0773 C.3     1  LIG1       -0.0306
     24 H           4.9028    0.5732    4.0293 H       1  LIG1        0.0260
     25 H           5.9733   -0.3958    4.6403 H       1  LIG1        0.0260
     26 H           6.1713    0.1817    3.1964 H       1  LIG1        0.0260
     27 C           6.0813    1.8098    6.0282 C.1     1  LIG1        0.0878
@<TRIPOS>BOND
     1    13    12    1
     2    11    10    1
     3    12    10   ar
     4    12    14   ar
     5    10     9   ar
     6    15    14    1
     7    14    16   ar
     8     9     4   ar
     9     9     8   ar
    10     6     5    1
    11    26    23    1
    12    16     8   ar
    13    16    17    1
    14     4     3   ar
    15     8     1   ar
    16     5    17   am
    17     5    18    1
    18    20    19    1
    19    24    23    1
    20    23    25    1
    21    23    18    1
    22    17     2    2
    23     3     1   ar
    24    18    19    1
    25    18    27    1
    26    19    22    1
    27    19    21    1
    28    27     7    3
