@<TRIPOS>MOLECULE
(1RS,4RS)-1-Methoxyspiro[bicyclo[2.2.2]oct-5-ene-2,2'-[1',3']dithiolane]
 30 32 0 0 0
SMALL
GASTEIGER

@<TRIPOS>ATOM
      1 S          -0.5908    5.5184    1.1420 S.3     1  LIG1       -0.1395
      2 S          -2.5456    7.2255    2.5013 S.3     1  LIG1       -0.1395
      3 O          -0.8587    5.2776    4.1905 O.3     1  LIG1       -0.3741
      4 C          -1.9333    4.6754    3.4926 C.3     1  LIG1        0.0961
      5 C          -2.1009    5.4678    2.1623 C.3     1  LIG1        0.0912
      6 C          -1.6528    3.2329    3.1186 C.3     1  LIG1       -0.0211
      7 C          -2.8144    2.5988    2.3891 C.3     1  LIG1       -0.0472
      8 C          -3.8918    3.6616    2.1710 C.3     1  LIG1       -0.0354
      9 C          -3.2318    4.7673    1.3358 C.3     1  LIG1       -0.0233
     10 C           0.0807    7.0559    1.8014 C.3     1  LIG1        0.0041
     11 C          -1.0137    7.9995    2.0522 C.3     1  LIG1        0.0041
     12 C          -0.6433    4.8255    5.5197 C.3     1  LIG1        0.0373
     13 C          -3.2693    4.7700    4.1807 C.3     1  LIG1       -0.0007
     14 C          -4.2867    4.2529    3.4937 C.3     1  LIG1       -0.0288
     15 H          -0.8637    3.1970    2.5548 H       1  LIG1        0.0294
     16 H          -1.4667    2.7258    3.9244 H       1  LIG1        0.0294
     17 H          -3.1736    1.8653    2.9125 H       1  LIG1        0.0269
     18 H          -2.5174    2.2476    1.5353 H       1  LIG1        0.0269
     19 H          -4.6690    3.2851    1.7076 H       1  LIG1        0.0304
     20 H          -3.8983    5.4219    1.0762 H       1  LIG1        0.0290
     21 H          -2.8542    4.3836    0.5278 H       1  LIG1        0.0290
     22 H           0.5564    6.8780    2.6279 H       1  LIG1        0.0385
     23 H           0.7064    7.4388    1.1678 H       1  LIG1        0.0385
     24 H          -1.1556    8.5318    1.2540 H       1  LIG1        0.0385
     25 H          -0.7485    8.6031    2.7642 H       1  LIG1        0.0385
     26 H           0.1068    5.2904    5.8981 H       1  LIG1        0.0524
     27 H          -0.4644    3.8821    5.5121 H       1  LIG1        0.0524
     28 H          -1.4265    4.9986    6.0475 H       1  LIG1        0.0524
     29 H          -3.4331    5.6454    4.5361 H       1  LIG1        0.0336
     30 H          -4.9730    3.7910    4.0455 H       1  LIG1        0.0310
@<TRIPOS>BOND
     1    21     9    1
     2    20     9    1
     3     1    10    1
     4     1     5    1
     5    23    10    1
     6    24    11    1
     7     9     5    1
     8     9     8    1
     9    18     7    1
    10    19     8    1
    11    10    11    1
    12    10    22    1
    13    11     2    1
    14    11    25    1
    15     5     2    1
    16     5     4    1
    17     8     7    1
    18     8    14    1
    19     7    17    1
    20     7     6    1
    21    15     6    1
    22     6     4    1
    23     6    16    1
    24     4    13    1
    25     4     3    1
    26    14    30    1
    27    14    13    1
    28    13    29    1
    29     3    12    1
    30    27    12    1
    31    12    26    1
    32    12    28    1
