@<TRIPOS>MOLECULE
tetraethyl 2,4,8,10-tetramethyl-6,12-diphenyl- 3,9-dioxapentacyclo[6.4.0.0^2,7^.0^4,11^.0^5,10^]dodecane-1,5,7,11- tetracarboxylate
 46 47 0 0 0
SMALL
GASTEIGER

@<TRIPOS>ATOM
      1 O           0.2382    4.2875    1.2288 O.3     1  LIG1       -0.3594
      2 O           3.4578    6.2033    1.6475 O.3     1  LIG1       -0.4644
      3 O           3.8191    6.8653   -0.4427 O.2     1  LIG1       -0.2501
      4 O          -0.8127    7.2381    3.4610 O.3     1  LIG1       -0.4644
      5 O          -2.5130    7.8503    2.2064 O.2     1  LIG1       -0.2501
      6 C          -0.9672    5.0521    1.2126 C.3     1  LIG1        0.1146
      7 C          -0.6844    6.6139    1.2025 C.3     1  LIG1        0.1258
      8 C           0.8197    6.9124    1.3167 C.3     1  LIG1        0.0235
      9 H           1.0981    6.5154    2.1676 H       1  LIG1        0.0373
     10 C           1.5941    6.1260    0.2250 C.3     1  LIG1        0.1258
     11 C           1.2597    4.5935    0.2631 C.3     1  LIG1        0.1146
     12 C           1.2437    8.3768    1.3982 C.ar    1  LIG1       -0.0419
     13 C           1.0340    9.2956    0.3771 C.ar    1  LIG1       -0.0582
     14 H           0.5541    9.0464   -0.3787 H       1  LIG1        0.0620
     15 C           1.5402   10.5855    0.4823 C.ar    1  LIG1       -0.0615
     16 H           1.3933   11.1915   -0.2077 H       1  LIG1        0.0618
     17 C           2.2488   10.9793    1.5816 C.ar    1  LIG1       -0.0617
     18 H           2.5878   11.8437    1.6377 H       1  LIG1        0.0618
     19 C           2.4569   10.0755    2.6150 C.ar    1  LIG1       -0.0615
     20 H           2.9406   10.3282    3.3673 H       1  LIG1        0.0618
     21 C           1.9421    8.7993    2.5164 C.ar    1  LIG1       -0.0582
     22 H           2.0670    8.2057    3.2218 H       1  LIG1        0.0620
     23 C           3.0776    6.4414    0.3930 C.2     1  LIG1        0.3180
     24 C           4.8335    6.5436    1.9950 C.3     1  LIG1        0.0897
     25 H           5.0017    7.4813    1.8101 H       1  LIG1        0.0694
     26 H           5.4507    6.0121    1.4668 H       1  LIG1        0.0694
     27 C           5.0298    6.2649    3.4422 C.3     1  LIG1       -0.0306
     28 H           5.9261    6.5007    3.6952 H       1  LIG1        0.0262
     29 H           4.8859    5.3306    3.6104 H       1  LIG1        0.0262
     30 H           4.4054    6.7828    3.9552 H       1  LIG1        0.0262
     31 C          -1.4458    7.3369    2.2979 C.2     1  LIG1        0.3180
     32 C          -1.4305    7.8570    4.6316 C.3     1  LIG1        0.0897
     33 H          -2.2302    8.3411    4.3692 H       1  LIG1        0.0694
     34 H          -0.8146    8.4844    5.0404 H       1  LIG1        0.0694
     35 C          -1.7801    6.7851    5.5972 C.3     1  LIG1       -0.0306
     36 H          -2.1897    7.1744    6.3729 H       1  LIG1        0.0262
     37 H          -0.9833    6.3168    5.8572 H       1  LIG1        0.0262
     38 H          -2.3924    6.1701    5.1860 H       1  LIG1        0.0262
     39 C           2.3635    3.6108    0.5856 C.3     1  LIG1       -0.0319
     40 H           2.5971    3.6854    1.5134 H       1  LIG1        0.0259
     41 H           3.1327    3.8050    0.0452 H       1  LIG1        0.0259
     42 H           2.0610    2.7183    0.4027 H       1  LIG1        0.0259
     43 C          -1.7656    4.4843    2.3707 C.3     1  LIG1       -0.0319
     44 H          -1.2295    4.4978    3.1667 H       1  LIG1        0.0259
     45 H          -2.0199    3.5804    2.1719 H       1  LIG1        0.0259
     46 H          -2.5539    5.0157    2.5068 H       1  LIG1        0.0259
@<TRIPOS>BOND
     1     3    23    2
     2    14    13    1
     3    16    15    1
     4    41    39    1
     5    10    11    1
     6    10    23    1
     7    10     8    1
     8    11    39    1
     9    11     1    1
    10    13    15   ar
    11    13    12   ar
    12    23     2    1
    13    42    39    1
    14    15    17   ar
    15    39    40    1
    16     7     6    1
    17     7     8    1
    18     7    31    1
    19     6     1    1
    20     6    43    1
    21     8    12    1
    22     8     9    1
    23    12    21   ar
    24    26    24    1
    25    17    18    1
    26    17    19   ar
    27     2    24    1
    28    25    24    1
    29    24    27    1
    30    45    43    1
    31     5    31    2
    32    31     4    1
    33    43    46    1
    34    43    44    1
    35    21    19   ar
    36    21    22    1
    37    19    20    1
    38    27    29    1
    39    27    28    1
    40    27    30    1
    41     4    32    1
    42    33    32    1
    43    32    34    1
    44    32    35    1
    45    38    35    1
    46    35    37    1
    47    35    36    1
