@<TRIPOS>MOLECULE
(Naphtho[2,1-<i>b</i>]furan-2-yl)(3-methyl-3-phenylcyclobutyl)methanone
 46 50 0 0 0
SMALL
GASTEIGER

@<TRIPOS>ATOM
      1 O           1.5524    6.6369   10.6495 O.2     1  LIG1       -0.2885
      2 O           3.3279    3.7194    9.6566 O.2     1  LIG1       -0.4519
      3 C           1.4265    7.1236    4.9054 C.ar    1  LIG1       -0.0580
      4 C           1.3296    8.1010    3.9233 C.ar    1  LIG1       -0.0615
      5 C           0.1875    8.8851    3.8291 C.ar    1  LIG1       -0.0617
      6 C          -0.8441    8.6850    4.7184 C.ar    1  LIG1       -0.0615
      7 C          -0.7461    7.7002    5.7052 C.ar    1  LIG1       -0.0580
      8 C           0.3869    6.9086    5.8107 C.ar    1  LIG1       -0.0414
      9 C           0.4697    5.7784    6.8076 C.3     1  LIG1       -0.0057
     10 C          -0.1447    4.5215    6.1915 C.3     1  LIG1       -0.0555
     11 C          -0.0609    6.0062    8.2546 C.3     1  LIG1       -0.0336
     12 C           1.8627    5.4790    7.4255 C.3     1  LIG1       -0.0336
     13 C           1.1414    5.1940    8.7736 C.3     1  LIG1        0.0268
     14 C           1.8694    5.6423   10.0065 C.2     1  LIG1        0.2010
     15 C           3.0453    4.8617   10.3993 C.ar    1  LIG1        0.1716
     16 C           3.9621    5.0503   11.3858 C.ar    1  LIG1       -0.0046
     17 C           4.8903    3.9686   11.2806 C.ar    1  LIG1        0.0285
     18 C           6.0555    3.5774   12.0131 C.ar    1  LIG1       -0.0071
     19 C           6.5733    4.3141   13.1051 C.ar    1  LIG1       -0.0534
     20 C           7.7118    3.8877   13.7460 C.ar    1  LIG1       -0.0611
     21 C           8.3629    2.7078   13.3431 C.ar    1  LIG1       -0.0612
     22 C           7.8765    1.9723   12.2928 C.ar    1  LIG1       -0.0540
     23 C           6.7166    2.3853   11.5926 C.ar    1  LIG1       -0.0171
     24 C           6.2012    1.6291   10.4832 C.ar    1  LIG1       -0.0505
     25 C           5.0830    2.0023    9.7987 C.ar    1  LIG1       -0.0181
     26 C           4.4531    3.1876   10.2216 C.ar    1  LIG1        0.1364
     27 H           2.2287    6.5212    4.9476 H       1  LIG1        0.0620
     28 H           2.0680    8.2209    3.2871 H       1  LIG1        0.0618
     29 H           0.1071    9.5816    3.1529 H       1  LIG1        0.0618
     30 H          -1.6321    9.2591    4.5964 H       1  LIG1        0.0618
     31 H          -1.4995    7.5432    6.3221 H       1  LIG1        0.0620
     32 H          -0.1142    3.7588    6.8463 H       1  LIG1        0.0238
     33 H           0.3064    4.2513    5.3451 H       1  LIG1        0.0238
     34 H          -1.1020    4.6655    5.9822 H       1  LIG1        0.0238
     35 H           0.0111    6.9634    8.5281 H       1  LIG1        0.0280
     36 H          -0.9954    5.6411    8.4566 H       1  LIG1        0.0280
     37 H           2.4298    4.7572    7.0044 H       1  LIG1        0.0280
     38 H           2.4367    6.3249    7.4935 H       1  LIG1        0.0280
     39 H           0.9696    4.2422    8.8793 H       1  LIG1        0.0382
     40 H           3.9386    5.7639   12.0410 H       1  LIG1        0.0663
     41 H           6.1121    5.1257   13.3603 H       1  LIG1        0.0624
     42 H           8.0924    4.4566   14.4916 H       1  LIG1        0.0618
     43 H           9.1624    2.4361   13.8319 H       1  LIG1        0.0618
     44 H           8.3285    1.1651   11.9983 H       1  LIG1        0.0624
     45 H           6.6748    0.8277   10.2350 H       1  LIG1        0.0625
     46 H           4.7096    1.4871    9.0599 H       1  LIG1        0.0655
@<TRIPOS>BOND
     1    29     5    1
     2    28     4    1
     3     5     4   ar
     4     5     6   ar
     5     4     3   ar
     6    30     6    1
     7     6     7   ar
     8     3    27    1
     9     3     8   ar
    10    33    10    1
    11     7     8   ar
    12     7    31    1
    13     8     9    1
    14    34    10    1
    15    10     9    1
    16    10    32    1
    17     9    12    1
    18     9    11    1
    19    37    12    1
    20    12    38    1
    21    12    13    1
    22    11    36    1
    23    11    35    1
    24    11    13    1
    25    13    39    1
    26    13    14    1
    27    46    25    1
    28     2    26   ar
    29     2    15   ar
    30    25    26   ar
    31    25    24   ar
    32    14    15    1
    33    14     1    2
    34    26    17   ar
    35    45    24    1
    36    15    16   ar
    37    24    23   ar
    38    17    16   ar
    39    17    18   ar
    40    16    40    1
    41    23    18   ar
    42    23    22   ar
    43    44    22    1
    44    18    19   ar
    45    22    21   ar
    46    19    41    1
    47    19    20   ar
    48    21    20   ar
    49    21    43    1
    50    20    42    1
