@<TRIPOS>MOLECULE
N-methyl(phenyl)methanaminium benzyl(methyl)carbamodithioate
 43 43 0 0 0
SMALL
GASTEIGER

@<TRIPOS>ATOM
      1 S           0.6757    7.0323    2.5215 S.3     1  LIG1       -0.0271
      2 S           0.7813    4.7502    0.5934 S.2     1  LIG1       -0.0271
      3 N           1.3132    4.5334    3.1672 N.am    1  LIG1       -0.3171
      4 N           1.9094    7.2916   -0.9145 N.4     2  LIG2        0.2281
      5 H           1.4328    6.7246   -0.3743 H       2  LIG2        0.2014
      6 H           1.2991    7.8515   -1.2747 H       2  LIG2        0.2014
      7 C           0.9489    5.3728    2.1821 C.2     1  LIG1        0.1200
      8 C           1.5906    3.1191    2.9298 C.3     1  LIG1        0.0020
      9 H           1.8351    2.6929    3.7663 H       1  LIG1        0.0428
     10 H           2.3212    3.0353    2.2984 H       1  LIG1        0.0428
     11 H           0.7989    2.6914    2.5680 H       1  LIG1        0.0428
     12 C           1.3986    4.9349    4.5783 C.3     1  LIG1        0.0378
     13 H           1.3294    5.9109    4.6405 H       1  LIG1        0.0513
     14 H           2.2722    4.6719    4.9351 H       1  LIG1        0.0513
     15 C           0.3114    4.3076    5.4158 C.ar    1  LIG1       -0.0302
     16 C           0.6035    3.8080    6.6768 C.ar    1  LIG1       -0.0571
     17 H           1.4876    3.8352    6.9945 H       1  LIG1        0.0621
     18 C          -0.3920    3.2706    7.4718 C.ar    1  LIG1       -0.0615
     19 H          -0.1804    2.9370    8.3249 H       1  LIG1        0.0618
     20 C          -1.6928    3.2218    7.0195 C.ar    1  LIG1       -0.0617
     21 H          -2.3681    2.8541    7.5588 H       1  LIG1        0.0618
     22 C          -1.9950    3.7183    5.7673 C.ar    1  LIG1       -0.0615
     23 H          -2.8813    3.6924    5.4535 H       1  LIG1        0.0618
     24 C          -0.9980    4.2540    4.9734 C.ar    1  LIG1       -0.0571
     25 H          -1.2126    4.5859    4.1210 H       1  LIG1        0.0621
     26 C           2.9457    7.9461   -0.0941 C.3     2  LIG2       -0.0445
     27 H           2.5225    8.4810    0.5959 H       2  LIG2        0.0777
     28 H           3.4905    8.5178   -0.6570 H       2  LIG2        0.0777
     29 H           3.5060    7.2696    0.3187 H       2  LIG2        0.0777
     30 C           2.4349    6.4312   -2.0213 C.3     2  LIG2       -0.0080
     31 H           1.6777    6.0783   -2.5341 H       2  LIG2        0.0866
     32 H           2.9113    5.6699   -1.6305 H       2  LIG2        0.0866
     33 C           3.3618    7.1551   -2.9590 C.ar    2  LIG2       -0.0030
     34 C           4.7346    7.0945   -2.7728 C.ar    2  LIG2       -0.0535
     35 H           5.0847    6.5895   -2.0616 H       2  LIG2        0.0622
     36 C           5.5970    7.7694   -3.6211 C.ar    2  LIG2       -0.0613
     37 H           6.5259    7.7348   -3.4782 H       2  LIG2        0.0618
     38 C           5.0827    8.4914   -4.6753 C.ar    2  LIG2       -0.0617
     39 H           5.6622    8.9569   -5.2505 H       2  LIG2        0.0618
     40 C           3.7240    8.5344   -4.8889 C.ar    2  LIG2       -0.0613
     41 H           3.3796    9.0137   -5.6205 H       2  LIG2        0.0618
     42 C           2.8621    7.8739   -4.0304 C.ar    2  LIG2       -0.0535
     43 H           1.9344    7.9145   -4.1755 H       2  LIG2        0.0622
@<TRIPOS>BOND
     1    41    40    1
     2    39    38    1
     3    40    38   ar
     4    40    42   ar
     5    38    36   ar
     6    43    42    1
     7    42    33   ar
     8    36    37    1
     9    36    34   ar
    10    33    34   ar
    11    33    30    1
    12    34    35    1
    13    31    30    1
    14    30    32    1
    15    30     4    1
    16     6     4    1
    17     4     5    1
    18     4    26    1
    19    28    26    1
    20    26    29    1
    21    26    27    1
    22     2     7    2
    23     7     1    1
    24     7     3    1
    25    10     8    1
    26    11     8    1
    27     8     3    1
    28     8     9    1
    29     3    12    1
    30    25    24    1
    31    12    13    1
    32    12    14    1
    33    12    15    1
    34    24    15   ar
    35    24    22   ar
    36    15    16   ar
    37    23    22    1
    38    22    20   ar
    39    16    17    1
    40    16    18   ar
    41    20    18   ar
    42    20    21    1
    43    18    19    1
