@<TRIPOS>MOLECULE
Pyridinium tartrate
 27 26 0 0 0
SMALL
GASTEIGER

@<TRIPOS>ATOM
      1 O           1.7349   12.8288    4.8773 O.3     1  LIG1       -0.4788
      2 H           1.4820   12.7309    4.1037 H       1  LIG1        0.2951
      3 O           0.2358   11.2357    5.3005 O.2     1  LIG1       -0.2480
      4 O           1.1832   10.8167    7.7601 O.3     1  LIG1       -0.3780
      5 H           0.4656   10.6143    7.4185 H       1  LIG1        0.2106
      6 O           0.3341   13.6880    7.5962 O.3     1  LIG1       -0.3778
      7 H          -0.1335   13.3535    8.1813 H       1  LIG1        0.2106
      8 O           3.3585   12.8485    9.2989 O.co2   1  LIG1       -0.2433
      9 O           1.3197   13.2504   10.0647 O.co2   1  LIG1       -0.2433
     10 C           1.1665   11.9337    5.6370 C.2     1  LIG1        0.3368
     11 C           1.7858   11.8385    7.0112 C.3     1  LIG1        0.1880
     12 H           2.7392   11.6349    6.9130 H       1  LIG1        0.0743
     13 C           1.6412   13.2002    7.7080 C.3     1  LIG1        0.1922
     14 H           2.2277   13.8294    7.2378 H       1  LIG1        0.0744
     15 C           2.1522   13.0918    9.1525 C.2     1  LIG1        0.3871
     16 C           1.0557    8.4555    2.8583 C.2     2  LIG2       -0.0101
     17 H           0.3749    7.8355    2.7235 H       2  LIG2        0.0778
     18 N           1.6956    8.4846    4.0194 N.pl3   2  LIG2       -0.3269
     19 H           1.4623    7.9386    4.6414 H       2  LIG2        0.1510
     20 C           2.6969    9.3426    4.2416 C.2     2  LIG2       -0.0101
     21 H           3.1469    9.3333    5.0549 H       2  LIG2        0.0778
     22 C           3.0526   10.2230    3.2796 C.2     2  LIG2       -0.0625
     23 H           3.7374   10.8338    3.4328 H       2  LIG2        0.0591
     24 C           2.3965   10.2098    2.0787 C.3     2  LIG2        0.0078
     25 H           2.6369   10.8047    1.4062 H       2  LIG2        0.0395
     26 C           1.3807    9.3108    1.8780 C.2     2  LIG2       -0.0625
     27 H           0.9221    9.2937    1.0692 H       2  LIG2        0.0591
@<TRIPOS>BOND
     1    27    26    1
     2    25    24    1
     3    26    24    1
     4    26    16    2
     5    24    22    1
     6    17    16    1
     7    16    18    1
     8    22    23    1
     9    22    20    2
    10    18    20    1
    11    18    19    1
    12     2     1    1
    13    20    21    1
    14     1    10    1
    15     3    10    2
    16    10    11    1
    17    12    11    1
    18    11    13    1
    19    11     4    1
    20    14    13    1
    21     5     4    1
    22     6    13    1
    23     6     7    1
    24    13    15    1
    25    15     8   ar
    26    15     9   ar
