@<TRIPOS>MOLECULE
o-Nitrobenzoic acid anhydride
 31 32 0 0 0
SMALL
GASTEIGER

@<TRIPOS>ATOM
      1 O           0.9317    9.4430    4.2509 O.3     1  LIG1       -0.3860
      2 C          -0.0244    9.3817    3.2621 C.2     1  LIG1        0.3490
      3 O          -0.8273   10.2277    3.0508 O.2     1  LIG1       -0.2444
      4 C           0.1424    8.1485    2.4448 C.ar    1  LIG1        0.0896
      5 C           1.3960    7.7452    2.0155 C.ar    1  LIG1       -0.0455
      6 H           2.1560    8.1687    2.3442 H       1  LIG1        0.0626
      7 C           1.5243    6.7129    1.0968 C.ar    1  LIG1       -0.0609
      8 H           2.3696    6.4493    0.8120 H       1  LIG1        0.0618
      9 C           0.4067    6.0780    0.6061 C.ar    1  LIG1       -0.0596
     10 H           0.5021    5.3930   -0.0150 H       1  LIG1        0.0618
     11 C          -0.8563    6.4497    1.0277 C.ar    1  LIG1       -0.0307
     12 H          -1.6129    6.0190    0.7020 H       1  LIG1        0.0640
     13 C          -0.9658    7.4741    1.9409 C.ar    1  LIG1        0.1401
     14 N          -2.3110    7.8004    2.4259 N.pl3   1  LIG1        0.0572
     15 O          -2.4664    7.9334    3.6217 O.2     1  LIG1       -0.1261
     16 O          -3.2007    7.8776    1.5981 O.2     1  LIG1       -0.1261
     17 C           0.9134   10.4691    5.1853 C.2     1  LIG1        0.3490
     18 O          -0.0675   11.0587    5.4996 O.2     1  LIG1       -0.2444
     19 C           2.2680   10.7014    5.7390 C.ar    1  LIG1        0.0896
     20 C           3.4076   10.1014    5.2070 C.ar    1  LIG1       -0.0455
     21 H           3.3223    9.4757    4.5239 H       1  LIG1        0.0626
     22 C           4.6668   10.4273    5.6873 C.ar    1  LIG1       -0.0609
     23 H           5.4194   10.0192    5.3242 H       1  LIG1        0.0618
     24 C           4.8111   11.3545    6.7007 C.ar    1  LIG1       -0.0596
     25 H           5.6601   11.5737    7.0103 H       1  LIG1        0.0618
     26 C           3.6968   11.9576    7.2559 C.ar    1  LIG1       -0.0307
     27 H           3.7871   12.5798    7.9409 H       1  LIG1        0.0640
     28 C           2.4522   11.6188    6.7769 C.ar    1  LIG1        0.1401
     29 N           1.3009   12.2633    7.4446 N.pl3   1  LIG1        0.0572
     30 O           1.0510   13.4106    7.1413 O.2     1  LIG1       -0.1261
     31 O           0.7188   11.6405    8.2998 O.2     1  LIG1       -0.1261
@<TRIPOS>BOND
     1    10     9    1
     2     9    11   ar
     3     9     7   ar
     4    12    11    1
     5     8     7    1
     6    11    13   ar
     7     7     5   ar
     8    16    14    2
     9    13    14    1
    10    13     4   ar
    11     5     6    1
    12     5     4   ar
    13    14    15    2
    14     4     2    1
    15     3     2    2
    16     2     1    1
    17     1    17    1
    18    21    20    1
    19    17    18    2
    20    17    19    1
    21    20    22   ar
    22    20    19   ar
    23    23    22    1
    24    22    24   ar
    25    19    28   ar
    26    24    25    1
    27    24    26   ar
    28    28    26   ar
    29    28    29    1
    30    30    29    2
    31    26    27    1
    32    29    31    2
