@<TRIPOS>MOLECULE
2-Amino-3-(4-methoxybenzylideneamino)butenedinitrile
 27 27 0 0 0
SMALL
GASTEIGER

@<TRIPOS>ATOM
      1 C           1.7495   16.0826    1.4755 C.2     1  LIG1        0.0363
      2 H           2.2838   16.7359    1.8666 H       1  LIG1        0.0836
      3 O           3.2085   10.7030    1.9334 O.3     1  LIG1       -0.4951
      4 C           2.9358   12.0377    1.8489 C.ar    1  LIG1        0.1201
      5 C           0.3988   17.7970    0.7044 C.2     1  LIG1        0.1711
      6 N           0.6944   16.4426    0.8435 N.2     1  LIG1       -0.2416
      7 C           2.1361   14.6850    1.6009 C.ar    1  LIG1       -0.0067
      8 N          -1.5662   17.2715   -0.5431 N.pl3   1  LIG1       -0.3474
      9 H          -1.4296   16.4276   -0.4575 H       1  LIG1        0.1430
     10 H          -2.2516   17.5539   -0.9777 H       1  LIG1        0.1430
     11 C          -0.7120   18.1455    0.0000 C.2     1  LIG1        0.1390
     12 C           1.3618   13.6530    1.0650 C.ar    1  LIG1       -0.0497
     13 H           0.5687   13.8566    0.6231 H       1  LIG1        0.0625
     14 C           1.2163   18.8182    1.2965 C.1     1  LIG1        0.1217
     15 C           3.3168   14.3568    2.2490 C.ar    1  LIG1       -0.0497
     16 H           3.8456   15.0338    2.6023 H       1  LIG1        0.0625
     17 N          -1.2419   20.6526   -0.3433 N.1     1  LIG1       -0.1895
     18 C           3.7245   13.0394    2.3804 C.ar    1  LIG1       -0.0194
     19 H           4.5165   12.8322    2.8202 H       1  LIG1        0.0654
     20 C           1.7551   12.3514    1.1824 C.ar    1  LIG1       -0.0194
     21 H           1.2330   11.6728    0.8169 H       1  LIG1        0.0654
     22 N           1.8939   19.5816    1.7995 N.1     1  LIG1       -0.1892
     23 C          -1.0131   19.5523   -0.1950 C.1     1  LIG1        0.1171
     24 C           4.3843   10.2969    2.6321 C.3     1  LIG1        0.0788
     25 H           5.1552   10.6816    2.2112 H       1  LIG1        0.0660
     26 H           4.4532    9.3388    2.6120 H       1  LIG1        0.0660
     27 H           4.3332   10.5950    3.5431 H       1  LIG1        0.0660
@<TRIPOS>BOND
     1    10     8    1
     2     8     9    1
     3     8    11    1
     4    17    23    3
     5    23    11    1
     6    11     5    2
     7    13    12    1
     8     5     6    1
     9     5    14    1
    10    21    20    1
    11     6     1    2
    12    12    20   ar
    13    12     7   ar
    14    20     4   ar
    15    14    22    3
    16     1     7    1
    17     1     2    1
    18     7    15   ar
    19     4     3    1
    20     4    18   ar
    21     3    24    1
    22    25    24    1
    23    15    18   ar
    24    15    16    1
    25    18    19    1
    26    26    24    1
    27    24    27    1
