@<TRIPOS>MOLECULE
Methyl N-[(2-hydroxynaphthalen-1-yl)(phenyl)methyl]carbamate
 40 42 0 0 0
SMALL
GASTEIGER

@<TRIPOS>ATOM
      1 C          -4.8117   -8.4700    7.7655 C.3     1  LIG1        0.0833
      2 H          -4.1753   -8.8176    7.3464 H       1  LIG1        0.0661
      3 H          -5.0167   -8.8357    8.6337 H       1  LIG1        0.0661
      4 H          -5.6660   -8.4917    7.3271 H       1  LIG1        0.0661
      5 C          -5.3184   -6.3014    8.5457 C.2     1  LIG1        0.4007
      6 C          -5.7447   -3.9225    9.0122 C.3     1  LIG1        0.0807
      7 H          -6.4045   -4.3835    9.5436 H       1  LIG1        0.0601
      8 C          -4.9068   -3.0530    9.9424 C.ar    1  LIG1       -0.0226
      9 C          -4.1787   -3.6397   10.9703 C.ar    1  LIG1       -0.0565
     10 H          -4.2339   -4.5609   11.0632 H       1  LIG1        0.0621
     11 C          -3.4217   -2.8915   11.8404 C.ar    1  LIG1       -0.0614
     12 H          -2.9523   -3.3315   12.5441 H       1  LIG1        0.0618
     13 C          -3.3843   -1.5381   11.7127 C.ar    1  LIG1       -0.0617
     14 H          -2.8106   -0.9922   12.2634 H       1  LIG1        0.0618
     15 C          -4.0907   -0.9306   10.7099 C.ar    1  LIG1       -0.0614
     16 H          -4.0742    0.0344   10.5696 H       1  LIG1        0.0618
     17 C          -4.8562   -1.6819    9.8339 C.ar    1  LIG1       -0.0565
     18 H          -5.3699   -1.2620    9.1274 H       1  LIG1        0.0621
     19 C          -6.4652   -3.1760    7.9030 C.ar    1  LIG1        0.0263
     20 C          -5.8001   -2.7836    6.7657 C.ar    1  LIG1        0.1227
     21 C          -6.4615   -2.1325    5.7097 C.ar    1  LIG1       -0.0192
     22 H          -5.9603   -1.8903    4.8976 H       1  LIG1        0.0654
     23 C          -7.7826   -1.8655    5.7958 C.ar    1  LIG1       -0.0506
     24 H          -8.2247   -1.4412    5.0912 H       1  LIG1        0.0625
     25 C          -8.5228   -2.1897    6.9505 C.ar    1  LIG1       -0.0173
     26 C          -9.8973   -1.8595    7.0793 C.ar    1  LIG1       -0.0540
     27 H         -10.3005   -1.4123    6.3011 H       1  LIG1        0.0624
     28 C         -10.5739   -2.1438    8.1943 C.ar    1  LIG1       -0.0612
     29 H         -11.4116   -1.9192    8.2950 H       1  LIG1        0.0618
     30 C          -9.9390   -2.7720    9.2561 C.ar    1  LIG1       -0.0612
     31 H         -10.3220   -3.0237   10.1243 H       1  LIG1        0.0618
     32 C          -8.6129   -3.1155    9.1922 C.ar    1  LIG1       -0.0536
     33 H          -8.1967   -3.5452    9.9017 H       1  LIG1        0.0624
     34 C          -7.8582   -2.8461    8.0211 C.ar    1  LIG1       -0.0091
     35 N          -4.9433   -5.0318    8.4847 N.am    1  LIG1       -0.2702
     36 H          -4.2776   -4.8307    8.0046 H       1  LIG1        0.1529
     37 O          -4.4793   -7.0733    7.8517 O.3     1  LIG1       -0.4537
     38 O          -6.2725   -6.7385    9.1583 O.2     1  LIG1       -0.2265
     39 O          -4.4520   -3.0288    6.6960 O.3     1  LIG1       -0.5064
     40 H          -4.1579   -2.7811    5.9430 H       1  LIG1        0.2921
@<TRIPOS>BOND
     1    22    21    1
     2    24    23    1
     3    21    23   ar
     4    21    20   ar
     5    23    25   ar
     6    40    39    1
     7    27    26    1
     8    39    20    1
     9    20    19   ar
    10    25    26   ar
    11    25    34   ar
    12    26    28   ar
    13     4     1    1
    14     2     1    1
    15     1    37    1
    16     1     3    1
    17    37     5    1
    18    19    34   ar
    19    19     6    1
    20    36    35    1
    21    34    32   ar
    22    28    29    1
    23    28    30   ar
    24    35     5   am
    25    35     6    1
    26     5    38    2
    27     6     7    1
    28     6     8    1
    29    18    17    1
    30    32    30   ar
    31    32    33    1
    32    30    31    1
    33    17     8   ar
    34    17    15   ar
    35     8     9   ar
    36    16    15    1
    37    15    13   ar
    38     9    10    1
    39     9    11   ar
    40    13    11   ar
    41    13    14    1
    42    11    12    1
