@<TRIPOS>MOLECULE
(2Z)-3-(4-Hydroxyphenyl)-2-(pyridinium-4-yl)acrylonitrile p-toluenesulfonate
 49 50 0 0 0
SMALL
GASTEIGER

@<TRIPOS>ATOM
      1 O           7.9405    3.1791    5.9177 O.3     1  LIG1       -0.5068
      2 N           7.2619    1.7698   16.4816 N.pl3   1  LIG1       -0.3161
      3 N          10.9584    2.0000   12.0712 N.1     1  LIG1       -0.1912
      4 C           9.8307    2.1316   12.2074 C.1     1  LIG1        0.0961
      5 C           8.5520    1.9077   16.1661 C.2     1  LIG1       -0.0068
      6 H           9.2005    1.8841   16.8469 H       1  LIG1        0.0780
      7 C           8.9407    2.0822   14.8751 C.2     1  LIG1       -0.0537
      8 H           9.8545    2.1752   14.6781 H       1  LIG1        0.0597
      9 C           8.0152    2.1251   13.8435 C.3     1  LIG1        0.0616
     10 C           6.6677    1.9938   14.2191 C.2     1  LIG1       -0.0537
     11 H           5.9957    2.0272   13.5619 H       1  LIG1        0.0597
     12 C           6.3274    1.8191   15.5161 C.2     1  LIG1       -0.0068
     13 H           5.4203    1.7301   15.7476 H       1  LIG1        0.0780
     14 C           8.4169    2.2712   12.4474 C.2     1  LIG1        0.0451
     15 C           7.5393    2.4817   11.4363 C.2     1  LIG1       -0.0400
     16 H           6.6424    2.5189   11.7158 H       1  LIG1        0.0633
     17 C           7.7136    2.6590   10.0183 C.ar    1  LIG1       -0.0239
     18 C           8.9355    2.6649    9.3287 C.ar    1  LIG1       -0.0511
     19 H           9.7356    2.5413    9.8059 H       1  LIG1        0.0625
     20 C           8.9826    2.8460    7.9776 C.ar    1  LIG1       -0.0196
     21 H           9.8141    2.8586    7.5396 H       1  LIG1        0.0654
     22 C           7.8151    3.0123    7.2404 C.ar    1  LIG1        0.1169
     23 C           6.5907    2.9755    7.8955 C.ar    1  LIG1       -0.0196
     24 H           5.7926    3.0645    7.4059 H       1  LIG1        0.0654
     25 C           6.5479    2.8092    9.2517 C.ar    1  LIG1       -0.0511
     26 H           5.7131    2.7961    9.6829 H       1  LIG1        0.0625
     27 C           6.8666    1.5570   17.8843 C.3     1  LIG1        0.0047
     28 H           7.4941    0.9512   18.3089 H       1  LIG1        0.0431
     29 H           5.9754    1.1733   17.9142 H       1  LIG1        0.0431
     30 H           6.8689    2.4059   18.3535 H       1  LIG1        0.0431
     31 S           5.1782    2.4768    3.7571 S.3     2  LIG2        0.1396
     32 O           5.7990    3.5391    4.5274 O.2     2  LIG2       -0.1397
     33 O           4.4853    1.5547    4.5685 O.3     2  LIG2       -0.0427
     34 O           6.1399    1.8820    2.8718 O.2     2  LIG2       -0.1397
     35 C           3.9903    3.3016    2.7417 C.ar    2  LIG2        0.1196
     36 C           4.3538    3.7582    1.4952 C.ar    2  LIG2       -0.0341
     37 H           5.2190    3.5921    1.1671 H       2  LIG2        0.0637
     38 C           3.4473    4.4590    0.7281 C.ar    2  LIG2       -0.0570
     39 H           3.7019    4.7648   -0.1231 H       2  LIG2        0.0621
     40 C           2.1775    4.7188    1.1864 C.ar    2  LIG2       -0.0503
     41 C           1.8217    4.2387    2.4367 C.ar    2  LIG2       -0.0570
     42 H           0.9524    4.3945    2.7586 H       2  LIG2        0.0621
     43 C           2.7194    3.5332    3.2206 C.ar    2  LIG2       -0.0341
     44 H           2.4643    3.2160    4.0679 H       2  LIG2        0.0637
     45 C           1.1914    5.4995    0.3697 C.3     2  LIG2       -0.0397
     46 H           1.3915    5.3865   -0.5730 H       2  LIG2        0.0278
     47 H           1.2517    6.4396    0.6027 H       2  LIG2        0.0278
     48 H           0.2944    5.1781    0.5517 H       2  LIG2        0.0278
     49 H           7.1677    3.3243    5.5597 H       1  LIG1        0.2921
@<TRIPOS>BOND
     1    46    45    1
     2    39    38    1
     3    45    48    1
     4    45    47    1
     5    45    40    1
     6    38    40   ar
     7    38    36   ar
     8    37    36    1
     9    40    41   ar
    10    36    35   ar
    11    41    42    1
    12    41    43   ar
    13    35    43   ar
    14    35    31    1
    15    34    31    2
    16    43    44    1
    17    31    32    2
    18    31    33    1
    19    49     1    1
    20     1    22    1
    21    22    23   ar
    22    22    20   ar
    23    24    23    1
    24    21    20    1
    25    23    25   ar
    26    20    18   ar
    27    25    26    1
    28    25    17   ar
    29    18    19    1
    30    18    17   ar
    31    17    15    1
    32    15    16    1
    33    15    14    2
    34     3     4    3
    35     4    14    1
    36    14     9    1
    37    11    10    1
    38     9    10    1
    39     9     7    1
    40    10    12    2
    41     8     7    1
    42     7     5    2
    43    12    13    1
    44    12     2    1
    45     5     2    1
    46     5     6    1
    47     2    27    1
    48    27    29    1
    49    27    28    1
    50    27    30    1
