@<TRIPOS>MOLECULE
1,2,4,6-tetrathiacycloheptane
 13 13 0 0 0
SMALL
GASTEIGER

@<TRIPOS>ATOM
      1 S           5.9482    3.7578    4.4117 S.3     1  LIG1       -0.0815
      2 S           6.2813    1.7923    4.0419 S.3     1  LIG1       -0.0815
      3 S           8.2058    1.1189    6.3725 S.3     1  LIG1       -0.1384
      4 S           5.6406    2.5395    7.2485 S.3     1  LIG1       -0.1384
      5 C           7.9906    1.5517    4.6402 C.3     1  LIG1        0.0508
      6 H           8.3999    0.8540    4.1040 H       1  LIG1        0.0498
      7 H           8.4849    2.3694    4.4720 H       1  LIG1        0.0498
      8 C           7.4635    2.5400    7.2261 C.3     1  LIG1        0.0414
      9 H           7.7679    3.3540    6.7960 H       1  LIG1        0.0490
     10 H           7.7847    2.5542    8.1415 H       1  LIG1        0.0490
     11 C           5.2657    3.8753    6.1052 C.3     1  LIG1        0.0508
     12 H           5.5840    4.7030    6.4980 H       1  LIG1        0.0498
     13 H           4.3004    3.9448    6.0330 H       1  LIG1        0.0498
@<TRIPOS>BOND
     1     2     1    1
     2     2     5    1
     3     6     5    1
     4     1    11    1
     5     7     5    1
     6     5     3    1
     7    13    11    1
     8    11    12    1
     9    11     4    1
    10     3     8    1
    11     9     8    1
    12     8     4    1
    13     8    10    1
