@<TRIPOS>MOLECULE
1-(3-Chlorobenzoyl)-3-(2,4,6-trichlorophenyl)thiourea
 30 31 0 0 0
SMALL
GASTEIGER

@<TRIPOS>ATOM
      1 S           4.3246    5.9919    5.5465 S.2     1  LIG1       -0.0182
      2 CL         11.8527    2.4146    8.9950 Cl      1  LIG1       -0.0835
      3 CL          3.2072    2.2623    4.7341 Cl      1  LIG1       -0.0815
      4 CL          1.8130    4.1724   -0.1174 Cl      1  LIG1       -0.0834
      5 CL          6.4915    5.6667    2.1047 Cl      1  LIG1       -0.0815
      6 C           7.5377    3.9101    6.5737 C.2     1  LIG1        0.2496
      7 O           7.8222    3.1093    5.6894 O.2     1  LIG1       -0.2698
      8 N           6.4235    4.7057    6.4993 N.am    1  LIG1       -0.2636
      9 H           6.3165    5.2203    7.1204 H       1  LIG1        0.1568
     10 C           5.5013    4.8225    5.4517 C.2     1  LIG1        0.1411
     11 N           5.6498    3.9621    4.4345 N.am    1  LIG1       -0.2943
     12 H           6.2876    3.4586    4.4388 H       1  LIG1        0.1539
     13 C           8.4142    4.0863    7.7873 C.ar    1  LIG1        0.0384
     14 C           9.5594    3.2898    7.8417 C.ar    1  LIG1       -0.0313
     15 H           9.7491    2.6723    7.1453 H       1  LIG1        0.0640
     16 C          10.4171    3.4122    8.9260 C.ar    1  LIG1        0.0417
     17 C          10.1756    4.3070    9.9553 C.ar    1  LIG1       -0.0433
     18 H          10.7761    4.3802   10.6875 H       1  LIG1        0.0632
     19 C           9.0400    5.0914    9.8904 C.ar    1  LIG1       -0.0597
     20 H           8.8581    5.7071   10.5905 H       1  LIG1        0.0618
     21 C           8.1586    4.9968    8.8193 C.ar    1  LIG1       -0.0495
     22 H           7.3859    5.5485    8.7876 H       1  LIG1        0.0625
     23 C           4.7552    3.9769    3.3242 C.ar    1  LIG1        0.0698
     24 C           3.5703    3.2407    3.3453 C.ar    1  LIG1        0.0649
     25 C           2.6613    3.2768    2.2899 C.ar    1  LIG1       -0.0231
     26 H           1.8569    2.7724    2.3213 H       1  LIG1        0.0647
     27 C           2.9629    4.0705    1.1889 C.ar    1  LIG1        0.0439
     28 C           4.1388    4.7975    1.1105 C.ar    1  LIG1       -0.0231
     29 H           4.3361    5.3232    0.3437 H       1  LIG1        0.0647
     30 C           5.0252    4.7381    2.1842 C.ar    1  LIG1        0.0649
@<TRIPOS>BOND
     1     4    27    1
     2    29    28    1
     3    28    27   ar
     4    28    30   ar
     5    27    25   ar
     6     5    30    1
     7    30    23   ar
     8    25    26    1
     9    25    24   ar
    10    23    24   ar
    11    23    11    1
    12    24     3    1
    13    11    12    1
    14    11    10    1
    15    10     1    2
    16    10     8    1
    17     7     6    2
    18     8     6   am
    19     8     9    1
    20     6    13    1
    21    15    14    1
    22    13    14   ar
    23    13    21   ar
    24    14    16   ar
    25    22    21    1
    26    21    19   ar
    27    16     2    1
    28    16    17   ar
    29    19    17   ar
    30    19    20    1
    31    17    18    1
