@<TRIPOS>MOLECULE
2-amino-4,6-dimethoxypyrimidine--4-aminobenzoic acid (1/1)
 37 37 0 0 0
SMALL
GASTEIGER

@<TRIPOS>ATOM
      1 O          -1.9815    4.9321   -1.7930 O.3     1  LIG1       -0.4795
      2 O          -0.9018    4.7069    2.8148 O.3     1  LIG1       -0.4795
      3 N           0.4449    5.6909    1.3422 N.ar    1  LIG1       -0.1795
      4 N           1.9424    6.6212   -0.1178 N.pl3   1  LIG1       -0.3273
      5 N          -0.0102    5.8063   -1.0056 N.ar    1  LIG1       -0.1795
      6 C           0.7700    6.0357    0.0741 C.ar    1  LIG1        0.2187
      7 C          -1.1534    5.1899   -0.7631 C.ar    1  LIG1        0.2225
      8 C          -1.5831    4.7542    0.4960 C.ar    1  LIG1        0.0616
      9 C          -0.7246    5.0370    1.5281 C.ar    1  LIG1        0.2225
     10 C          -1.5241    5.2952   -3.1114 C.3     1  LIG1        0.0804
     11 C          -2.0280    3.8664    3.1281 C.3     1  LIG1        0.0804
     12 O           3.4267    7.0584    2.2373 O.2     2  LIG2       -0.2451
     13 O           1.8274    6.2082    3.5341 O.3     2  LIG2       -0.4771
     14 N           5.6781    8.8262    7.9207 N.pl3   2  LIG2       -0.3580
     15 C           3.6586    7.3091    4.5744 C.ar    2  LIG2        0.0589
     16 C           3.0834    7.2492    5.8436 C.ar    2  LIG2       -0.0460
     17 C           3.7471    7.7540    6.9496 C.ar    2  LIG2       -0.0403
     18 C           5.0107    8.3433    6.8197 C.ar    2  LIG2        0.0246
     19 C           5.5896    8.3940    5.5448 C.ar    2  LIG2       -0.0403
     20 C           4.9275    7.8935    4.4435 C.ar    2  LIG2       -0.0460
     21 C           2.9504    6.8355    3.3569 C.2     2  LIG2        0.3368
     22 H           2.1872    6.8435   -0.9105 H       1  LIG1        0.1452
     23 H           2.4590    6.7792    0.5523 H       1  LIG1        0.1452
     24 H          -2.3893    4.3077    0.6234 H       1  LIG1        0.0724
     25 H          -1.1639    6.1846   -3.0923 H       1  LIG1        0.0660
     26 H          -2.2609    5.2628   -3.7266 H       1  LIG1        0.0660
     27 H          -0.8432    4.6809   -3.3958 H       1  LIG1        0.0660
     28 H          -2.8402    4.3183    2.8872 H       1  LIG1        0.0660
     29 H          -2.0330    3.6767    4.0684 H       1  LIG1        0.0660
     30 H          -1.9608    3.0451    2.6357 H       1  LIG1        0.0660
     31 H           1.4685    6.0803    2.8079 H       2  LIG2        0.2954
     32 H           5.3193    8.7672    8.6999 H       2  LIG2        0.1423
     33 H           6.4535    9.1866    7.8305 H       2  LIG2        0.1423
     34 H           2.2431    6.8661    5.9494 H       2  LIG2        0.0626
     35 H           3.3491    7.7003    7.7895 H       2  LIG2        0.0636
     36 H           6.4331    8.7718    5.4409 H       2  LIG2        0.0636
     37 H           5.3266    7.9436    3.6063 H       2  LIG2        0.0626
@<TRIPOS>BOND
     1    26    10    1
     2    27    10    1
     3    10    25    1
     4    10     1    1
     5     1     7    1
     6     5     7   ar
     7     5     6   ar
     8    22     4    1
     9     7     8   ar
    10     4     6    1
    11     4    23    1
    12     6     3   ar
    13     8    24    1
    14     8     9   ar
    15     3     9   ar
    16     9     2    1
    17    12    21    2
    18    30    11    1
    19    31    13    1
    20     2    11    1
    21    28    11    1
    22    11    29    1
    23    21    13    1
    24    21    15    1
    25    37    20    1
    26    20    15   ar
    27    20    19   ar
    28    15    16   ar
    29    36    19    1
    30    19    18   ar
    31    16    34    1
    32    16    17   ar
    33    18    17   ar
    34    18    14    1
    35    17    35    1
    36    33    14    1
    37    14    32    1
