@<TRIPOS>MOLECULE
3,3'-(p-Phenylenedimethylene)bis(propane-2,4-dione)
 22 21 0 0 0
SMALL
GASTEIGER

@<TRIPOS>ATOM
      1 C           3.4508    1.1438    5.1063 C.2     1  LIG1        0.1407
      2 C           2.0471    0.7354    5.5250 C.3     1  LIG1        0.0788
      3 H           1.7759    1.2795    6.2940 H       1  LIG1        0.0458
      4 O           2.5987   -1.5509    5.2524 O.2     1  LIG1       -0.2970
      5 C           2.0764   -0.7360    5.9488 C.2     1  LIG1        0.1407
      6 C          -0.3567    0.4674    4.7757 C.2     1  LIG1       -0.0642
      7 C          -1.1211    1.1585    5.6949 C.2     1  LIG1       -0.0622
      8 H          -0.7913    1.9507    6.0535 H       1  LIG1        0.0617
      9 C          -0.8838   -0.7042    4.2678 C.3     1  LIG1       -0.0054
     10 H          -0.3948   -1.1943    3.6460 H       1  LIG1        0.0358
     11 C           1.0295    0.9308    4.4005 C.3     1  LIG1       -0.0149
     12 H           0.9949    1.8712    4.1652 H       1  LIG1        0.0321
     13 H           1.3253    0.4401    3.6180 H       1  LIG1        0.0321
     14 C           4.4317    1.3772    6.2121 C.3     1  LIG1       -0.0053
     15 H           5.2689    1.6674    5.8421 H       1  LIG1        0.0306
     16 H           4.5630    0.5617    6.7013 H       1  LIG1        0.0306
     17 H           4.0912    2.0530    6.8039 H       1  LIG1        0.0306
     18 C           1.4222   -1.1159    7.2184 C.3     1  LIG1       -0.0053
     19 H           1.5395   -2.0569    7.3697 H       1  LIG1        0.0306
     20 H           0.4847   -0.9138    7.1676 H       1  LIG1        0.0306
     21 H           1.8169   -0.6241    7.9418 H       1  LIG1        0.0306
     22 O           3.7544    1.2534    3.9473 O.2     1  LIG1       -0.2970
@<TRIPOS>BOND
     1    13    11    1
     2    10     9    1
     3    22     1    2
     4    12    11    1
     5     9     6    1
     6    11     6    1
     7    11     2    1
     8     6     7    2
     9     1     2    1
    10     1    14    1
    11     4     5    2
    12     2     5    1
    13     2     3    1
    14     7     8    1
    15    15    14    1
    16     5    18    1
    17    14    16    1
    18    14    17    1
    19    20    18    1
    20    18    19    1
    21    18    21    1
