@<TRIPOS>MOLECULE
3a,5b-Dimethyl-2,3,3a,4,5,5a,5b,6,7,13,13a,13b-dodecahydro- 1H-8-azacyclopenta[<i>a</i>]chrysen-3-ol
 53 57 0 0 0
SMALL
GASTEIGER

@<TRIPOS>ATOM
      1 C           1.4462    3.7340    5.1846 C.ar    1  LIG1       -0.0003
      2 N           3.5595    2.8089    4.4801 N.ar    1  LIG1       -0.2593
      3 C           0.6964    6.4244    7.8575 C.3     1  LIG1       -0.0282
      4 H           0.6161    5.7143    8.5279 H       1  LIG1        0.0312
      5 C           0.6938    4.7256    5.9907 C.2     1  LIG1       -0.0362
      6 C           1.5040    5.8289    6.6766 C.3     1  LIG1       -0.0033
      7 C           2.8381    3.6555    5.2312 C.ar    1  LIG1        0.0487
      8 C          -1.4618    7.3843    8.6484 C.3     1  LIG1       -0.0298
      9 H          -1.4134    6.6940    9.3419 H       1  LIG1        0.0310
     10 C           2.9062    1.9709    3.6751 C.ar    1  LIG1        0.0279
     11 H           3.3998    1.3855    3.1468 H       1  LIG1        0.0829
     12 C          -0.7363    6.8099    7.4518 C.3     1  LIG1       -0.0306
     13 H          -0.6886    7.4988    6.7559 H       1  LIG1        0.0310
     14 O          -1.7981   10.2472   10.9180 O.3     1  LIG1       -0.3912
     15 H          -1.0640   10.4010   11.2488 H       1  LIG1        0.2098
     16 C           0.8068    2.8248    4.3275 C.ar    1  LIG1       -0.0512
     17 H          -0.1208    2.8257    4.2594 H       1  LIG1        0.0625
     18 C          -1.4764    5.6059    6.8913 C.3     1  LIG1       -0.0308
     19 H          -1.8457    5.0967    7.6305 H       1  LIG1        0.0310
     20 H          -2.2194    5.9220    6.3527 H       1  LIG1        0.0310
     21 C          -1.8104    8.9363   10.3829 C.3     1  LIG1        0.0609
     22 H          -1.6723    8.2968   11.1123 H       1  LIG1        0.0599
     23 C          -0.8059    8.6266    9.2559 C.3     1  LIG1       -0.0030
     24 C           0.6006    8.2151    9.6998 C.3     1  LIG1       -0.0447
     25 H           0.5333    7.5712   10.4211 H       1  LIG1        0.0271
     26 H           1.0709    8.9936   10.0376 H       1  LIG1        0.0271
     27 C           2.7803    5.1789    7.2243 C.3     1  LIG1       -0.0379
     28 H           3.3066    5.8523    7.6821 H       1  LIG1        0.0277
     29 H           2.5361    4.5009    7.8731 H       1  LIG1        0.0277
     30 C           1.5437    1.9361    3.5929 C.ar    1  LIG1       -0.0430
     31 H           1.1218    1.3158    3.0437 H       1  LIG1        0.0633
     32 C           1.4022    7.6009    8.5473 C.3     1  LIG1       -0.0486
     33 H           2.2565    7.2952    8.8887 H       1  LIG1        0.0268
     34 H           1.5782    8.2899    7.8867 H       1  LIG1        0.0268
     35 C           3.6302    4.5416    6.1405 C.3     1  LIG1       -0.0090
     36 H           4.0496    5.2415    5.6145 H       1  LIG1        0.0329
     37 H           4.3343    4.0199    6.5558 H       1  LIG1        0.0329
     38 C          -0.6411    4.7007    6.0621 C.2     1  LIG1       -0.0794
     39 H          -1.0829    4.0637    5.5493 H       1  LIG1        0.0575
     40 C           1.8665    6.8899    5.6309 C.3     1  LIG1       -0.0553
     41 H           2.3799    7.5863    6.0465 H       1  LIG1        0.0238
     42 H           1.0631    7.2624    5.2613 H       1  LIG1        0.0238
     43 H           2.3833    6.4849    4.9309 H       1  LIG1        0.0238
     44 C          -2.9408    7.7598    8.5427 C.3     1  LIG1       -0.0470
     45 H          -3.1211    8.2285    7.7124 H       1  LIG1        0.0269
     46 H          -3.5034    6.9714    8.5870 H       1  LIG1        0.0269
     47 C          -3.1807    8.6698    9.7452 C.3     1  LIG1       -0.0261
     48 H          -3.7709    8.2367   10.3817 H       1  LIG1        0.0290
     49 H          -3.5897    9.5019    9.4616 H       1  LIG1        0.0290
     50 C          -0.7533    9.8079    8.2872 C.3     1  LIG1       -0.0569
     51 H          -0.3417   10.5595    8.7204 H       1  LIG1        0.0236
     52 H          -1.6456   10.0417    8.0201 H       1  LIG1        0.0236
     53 H          -0.2407    9.5648    7.5123 H       1  LIG1        0.0236
@<TRIPOS>BOND
     1    31    30    1
     2    11    10    1
     3    30    10   ar
     4    30    16   ar
     5    10     2   ar
     6    17    16    1
     7    16     1   ar
     8     2     7   ar
     9    43    40    1
    10     1     7   ar
    11     1     5    1
    12     7    35    1
    13    42    40    1
    14    39    38    1
    15    36    35    1
    16    40    41    1
    17    40     6    1
    18     5    38    2
    19     5     6    1
    20    38    18    1
    21    35    37    1
    22    35    27    1
    23    20    18    1
    24     6    27    1
    25     6     3    1
    26    13    12    1
    27    18    12    1
    28    18    19    1
    29    27    28    1
    30    27    29    1
    31    12     3    1
    32    12     8    1
    33    53    50    1
    34    45    44    1
    35     3     4    1
    36     3    32    1
    37    34    32    1
    38    52    50    1
    39    50    51    1
    40    50    23    1
    41    44    46    1
    42    44     8    1
    43    44    47    1
    44    32    33    1
    45    32    24    1
    46     8    23    1
    47     8     9    1
    48    23    24    1
    49    23    21    1
    50    49    47    1
    51    24    26    1
    52    24    25    1
    53    47    48    1
    54    47    21    1
    55    21    14    1
    56    21    22    1
    57    14    15    1
