@<TRIPOS>MOLECULE
Dibenzyl sulphide
 15 15 0 0 0
SMALL
GASTEIGER

@<TRIPOS>ATOM
      1 S           6.9956    4.6498    1.8020 S.3     1  LIG1       -0.0881
      2 C           8.8638    3.4806   -0.7951 C.ar    1  LIG1       -0.0578
      3 C           6.6713    3.5014    0.4413 C.3     1  LIG1        0.0290
      4 C           7.8896    2.7907   -0.0725 C.ar    1  LIG1       -0.0367
      5 C           9.9608    2.8185   -1.3194 C.ar    1  LIG1       -0.0615
      6 C           8.0706    1.4295    0.1404 C.ar    1  LIG1       -0.0578
      7 C          10.1188    1.4579   -1.1180 C.ar    1  LIG1       -0.0617
      8 C           9.1744    0.7635   -0.3787 C.ar    1  LIG1       -0.0615
      9 H          10.5830    3.2748   -1.8453 H       1  LIG1        0.0618
     10 H           5.9841    2.8610    0.6920 H       1  LIG1        0.0433
     11 H           7.4000    0.9313    0.6776 H       1  LIG1        0.0621
     12 H          10.8768    1.0031   -1.5065 H       1  LIG1        0.0618
     13 H           8.7600    4.4295   -0.9154 H       1  LIG1        0.0621
     14 H           6.2639    4.0385   -0.2667 H       1  LIG1        0.0433
     15 H           9.2902   -0.1892   -0.2307 H       1  LIG1        0.0618
@<TRIPOS>BOND
     1     9     5    1
     2    12     7    1
     3     5     7   ar
     4     5     2   ar
     5     7     8   ar
     6    13     2    1
     7     2     4   ar
     8     8    15    1
     9     8     6   ar
    10    14     3    1
    11     4     6   ar
    12     4     3    1
    13     6    11    1
    14     3    10    1
    15     3     1    1
