@<TRIPOS>MOLECULE
10,10'-Dinitro-10,10'-(butane-1,4-diyl)dianthracen-9(10H)-one
 32 34 0 0 0
SMALL
GASTEIGER

@<TRIPOS>ATOM
      1 O          -0.7537    1.7501   11.0883 O.2     1  LIG1       -0.1305
      2 O           1.2216    2.4840   11.2899 O.2     1  LIG1       -0.1305
      3 O           4.4681    1.9042    7.4660 O.2     1  LIG1       -0.2866
      4 N           0.3505    1.9359   10.6599 N.pl3   1  LIG1        0.0375
      5 C           3.9648   -0.4490    8.8501 C.ar    1  LIG1       -0.0506
      6 H           4.7864   -0.3599    8.4243 H       1  LIG1        0.0625
      7 C           3.7020   -1.5669    9.5771 C.ar    1  LIG1       -0.0611
      8 H           4.3373   -2.2433    9.6319 H       1  LIG1        0.0618
      9 C           2.4945   -1.7035   10.2364 C.ar    1  LIG1       -0.0614
     10 H           2.3268   -2.4632   10.7473 H       1  LIG1        0.0618
     11 C           1.5373   -0.7089   10.1357 C.ar    1  LIG1       -0.0551
     12 H           0.7257   -0.8013   10.5795 H       1  LIG1        0.0621
     13 C           1.7845    0.4257    9.3750 C.ar    1  LIG1       -0.0001
     14 C           0.2224    3.7843    8.3940 C.ar    1  LIG1       -0.0551
     15 H          -0.6061    3.7202    8.8108 H       1  LIG1        0.0621
     16 C           0.5437    4.9297    7.7095 C.ar    1  LIG1       -0.0614
     17 H          -0.0589    5.6369    7.6802 H       1  LIG1        0.0618
     18 C           1.7544    5.0322    7.0679 C.ar    1  LIG1       -0.0611
     19 H           1.9663    5.8018    6.5909 H       1  LIG1        0.0618
     20 C           2.6441    4.0026    7.1331 C.ar    1  LIG1       -0.0506
     21 H           3.4615    4.0750    6.6968 H       1  LIG1        0.0625
     22 C           2.3464    2.8364    7.8472 C.ar    1  LIG1        0.0282
     23 C           3.3584    1.7710    7.9646 C.2     1  LIG1        0.1938
     24 C           3.0185    0.5639    8.7364 C.ar    1  LIG1        0.0282
     25 C           0.6936    1.4636    9.2116 C.3     1  LIG1        0.1718
     26 C           1.1081    2.7214    8.4764 C.ar    1  LIG1       -0.0001
     27 C          -0.5640    0.8438    8.5847 C.3     1  LIG1       -0.0145
     28 H          -0.8721    0.1141    9.1450 H       1  LIG1        0.0297
     29 H          -1.2660    1.5119    8.5536 H       1  LIG1        0.0297
     30 C          -0.3096    0.3190    7.1778 C.3     1  LIG1       -0.0500
     31 H          -0.0202    1.0521    6.6115 H       1  LIG1        0.0266
     32 H           0.4039   -0.3365    7.2057 H       1  LIG1        0.0266
@<TRIPOS>BOND
     1    19    18    1
     2    31    30    1
     3    21    20    1
     4    18    20   ar
     5    18    16   ar
     6    20    22   ar
     7    30    32    1
     8    30    27    1
     9     3    23    2
    10    17    16    1
    11    16    14   ar
    12    22    23    1
    13    22    26   ar
    14    23    24    1
    15    14    26   ar
    16    14    15    1
    17     6     5    1
    18    26    25    1
    19    29    27    1
    20    27    28    1
    21    27    25    1
    22    24     5   ar
    23    24    13   ar
    24     5     7   ar
    25    25    13    1
    26    25     4    1
    27    13    11   ar
    28     7     8    1
    29     7     9   ar
    30    11     9   ar
    31    11    12    1
    32     9    10    1
    33     4     1    2
    34     4     2    2
