@<TRIPOS>MOLECULE
7,8-dichloro-2,3-diphenylquinoxaline
 36 39 0 0 0
SMALL
GASTEIGER

@<TRIPOS>ATOM
      1 CL          4.9295    7.4964   10.3177 Cl      1  LIG1       -0.0820
      2 CL          4.6651    7.2915    7.1793 Cl      1  LIG1       -0.0820
      3 N           9.4925    5.3271    9.8963 N.ar    1  LIG1       -0.2430
      4 N           9.2482    5.1177    7.1035 N.ar    1  LIG1       -0.2430
      5 C          10.4995    4.8995    9.1514 C.ar    1  LIG1        0.0976
      6 C          10.3662    4.7476    7.7128 C.ar    1  LIG1        0.0976
      7 C           8.2415    5.6369    7.8594 C.ar    1  LIG1        0.0914
      8 C           7.0721    6.1161    7.2221 C.ar    1  LIG1       -0.0144
      9 H           6.9828    6.0545    6.2790 H       1  LIG1        0.0654
     10 C           6.0670    6.6708    7.9743 C.ar    1  LIG1        0.0614
     11 C           6.1818    6.7519    9.3919 C.ar    1  LIG1        0.0614
     12 C           7.2913    6.2636   10.0281 C.ar    1  LIG1       -0.0144
     13 H           7.3506    6.2933   10.9761 H       1  LIG1        0.0654
     14 C           8.3495    5.7143    9.2656 C.ar    1  LIG1        0.0914
     15 C          11.7544    4.6504    9.9091 C.ar    1  LIG1        0.0025
     16 C          12.9351    5.3192    9.5806 C.ar    1  LIG1       -0.0525
     17 H          12.9573    5.9016    8.8295 H       1  LIG1        0.0624
     18 C          14.0800    5.1354   10.3485 C.ar    1  LIG1       -0.0611
     19 H          14.8804    5.5996   10.1291 H       1  LIG1        0.0618
     20 C          14.0538    4.2705   11.4377 C.ar    1  LIG1       -0.0617
     21 H          14.8388    4.1414   11.9577 H       1  LIG1        0.0618
     22 C          12.8857    3.5953   11.7695 C.ar    1  LIG1       -0.0611
     23 H          12.8738    2.9999   12.5093 H       1  LIG1        0.0618
     24 C          11.7330    3.7930   11.0147 C.ar    1  LIG1       -0.0525
     25 H          10.9302    3.3448   11.2503 H       1  LIG1        0.0624
     26 C          11.4239    4.1888    6.8230 C.ar    1  LIG1        0.0025
     27 C          12.4209    3.3094    7.2650 C.ar    1  LIG1       -0.0525
     28 H          12.4504    3.0538    8.1789 H       1  LIG1        0.0624
     29 C          13.3670    2.8072    6.3776 C.ar    1  LIG1       -0.0611
     30 H          14.0452    2.2205    6.6927 H       1  LIG1        0.0618
     31 C          13.3268    3.1586    5.0316 C.ar    1  LIG1       -0.0617
     32 H          13.9775    2.8197    4.4294 H       1  LIG1        0.0618
     33 C          12.3256    4.0090    4.5749 C.ar    1  LIG1       -0.0611
     34 H          12.2839    4.2389    3.6538 H       1  LIG1        0.0618
     35 C          11.3841    4.5240    5.4600 C.ar    1  LIG1       -0.0525
     36 H          10.7076    5.1081    5.1384 H       1  LIG1        0.0624
@<TRIPOS>BOND
     1    34    33    1
     2    32    31    1
     3    33    31   ar
     4    33    35   ar
     5    31    29   ar
     6    36    35    1
     7    35    26   ar
     8     9     8    1
     9    29    30    1
    10    29    27   ar
    11    26    27   ar
    12    26     6    1
    13     4     6   ar
    14     4     7   ar
    15     2    10    1
    16     8     7   ar
    17     8    10   ar
    18    27    28    1
    19     6     5   ar
    20     7    14   ar
    21    10    11   ar
    22    17    16    1
    23     5     3   ar
    24     5    15    1
    25    14     3   ar
    26    14    12   ar
    27    11    12   ar
    28    11     1    1
    29    16    15   ar
    30    16    18   ar
    31    15    24   ar
    32    12    13    1
    33    19    18    1
    34    18    20   ar
    35    24    25    1
    36    24    22   ar
    37    20    22   ar
    38    20    21    1
    39    22    23    1
