@<TRIPOS>MOLECULE
(E)-4-(4-Ethoxy-3-methoxybenzylideneamino)-1,5-dimethyl-2-phenylpyrazolidin- 3-one
 50 52 0 0 0
SMALL
GASTEIGER

@<TRIPOS>ATOM
      1 O           3.7025    3.4453    1.9367 O.3     1  LIG1       -0.4886
      2 O           4.2778    0.9598    1.9679 O.3     1  LIG1       -0.4914
      3 O          12.1283    2.2356    1.4528 O.2     1  LIG1       -0.2635
      4 N           9.4003    0.6679    1.6736 N.2     1  LIG1       -0.2477
      5 N          12.4309   -1.2084    1.7826 N.ar    1  LIG1       -0.2820
      6 N          12.9635    0.0700    1.5480 N.ar    1  LIG1       -0.2154
      7 C           1.8152    4.8608    1.9187 C.3     1  LIG1       -0.0307
      8 H           1.4616    4.5141    1.0966 H       1  LIG1        0.0262
      9 H           1.5214    5.7667    2.0372 H       1  LIG1        0.0262
     10 H           1.5036    4.3246    2.6516 H       1  LIG1        0.0262
     11 C           3.3123    4.8227    1.8748 C.3     1  LIG1        0.0870
     12 H           3.6343    5.2271    1.0545 H       1  LIG1        0.0694
     13 H           3.6835    5.3112    2.6263 H       1  LIG1        0.0694
     14 C           5.0341    3.1620    1.8407 C.ar    1  LIG1        0.1619
     15 C           6.0485    4.0858    1.7044 C.ar    1  LIG1       -0.0157
     16 H           5.8491    4.9942    1.6829 H       1  LIG1        0.0655
     17 C           7.3578    3.6651    1.6001 C.ar    1  LIG1       -0.0495
     18 H           8.0315    4.2991    1.5016 H       1  LIG1        0.0625
     19 C           7.6921    2.3301    1.6379 C.ar    1  LIG1       -0.0033
     20 C           6.6644    1.3903    1.7718 C.ar    1  LIG1       -0.0077
     21 H           6.8705    0.4835    1.7996 H       1  LIG1        0.0662
     22 C           5.3566    1.7926    1.8633 C.ar    1  LIG1        0.1621
     23 C           4.5243   -0.4320    2.0191 C.3     1  LIG1        0.0790
     24 H           4.9685   -0.7079    1.2133 H       1  LIG1        0.0660
     25 H           3.6906   -0.9016    2.1033 H       1  LIG1        0.0660
     26 H           5.0811   -0.6305    2.7754 H       1  LIG1        0.0660
     27 C           9.0875    1.8984    1.5496 C.2     1  LIG1        0.0358
     28 H           9.7541    2.5290    1.4017 H       1  LIG1        0.0836
     29 C          10.7239    0.2422    1.6267 C.ar    1  LIG1        0.1503
     30 C          11.0708   -1.0690    1.7390 C.ar    1  LIG1        0.0636
     31 C          11.9427    1.0163    1.5208 C.ar    1  LIG1        0.2975
     32 C          10.1680   -2.2409    1.8194 C.3     1  LIG1       -0.0205
     33 H          10.2224   -2.7423    1.0024 H       1  LIG1        0.0293
     34 H           9.2659   -1.9409    1.9515 H       1  LIG1        0.0293
     35 H          10.4319   -2.7975    2.5560 H       1  LIG1        0.0293
     36 C          13.1143   -2.3165    1.1163 C.3     1  LIG1        0.0292
     37 H          12.6324   -3.1315    1.2752 H       1  LIG1        0.0472
     38 H          14.0050   -2.3981    1.4636 H       1  LIG1        0.0472
     39 H          13.1530   -2.1466    0.1715 H       1  LIG1        0.0472
     40 C          14.3377    0.3255    1.8109 C.ar    1  LIG1        0.0674
     41 C          15.0201   -0.3518    2.8029 C.ar    1  LIG1       -0.0362
     42 H          14.5822   -0.9773    3.3349 H       1  LIG1        0.0639
     43 C          16.3690   -0.0841    2.9933 C.ar    1  LIG1       -0.0598
     44 H          16.8433   -0.5481    3.6442 H       1  LIG1        0.0618
     45 C          17.0082    0.8600    2.2273 C.ar    1  LIG1       -0.0616
     46 H          17.9095    1.0427    2.3662 H       1  LIG1        0.0618
     47 C          16.3121    1.5288    1.2618 C.ar    1  LIG1       -0.0598
     48 H          16.7447    2.1721    0.7480 H       1  LIG1        0.0618
     49 C          14.9838    1.2662    1.0386 C.ar    1  LIG1       -0.0362
     50 H          14.5222    1.7191    0.3698 H       1  LIG1        0.0639
@<TRIPOS>BOND
     1    39    36    1
     2    50    49    1
     3    48    47    1
     4    33    32    1
     5    49    47   ar
     6    49    40   ar
     7    12    11    1
     8     8     7    1
     9    36    37    1
    10    36    38    1
    11    36     5    1
    12    24    23    1
    13    47    45   ar
    14    28    27    1
    15     3    31    2
    16    18    17    1
    17    31     6   ar
    18    31    29   ar
    19     6     5   ar
    20     6    40    1
    21    27    19    1
    22    27     4    2
    23    17    19   ar
    24    17    15   ar
    25    29     4    1
    26    29    30   ar
    27    19    20   ar
    28    16    15    1
    29    15    14   ar
    30    30     5   ar
    31    30    32    1
    32    20    21    1
    33    20    22   ar
    34    40    41   ar
    35    32    34    1
    36    32    35    1
    37    14    22   ar
    38    14     1    1
    39    22     2    1
    40    11     7    1
    41    11     1    1
    42    11    13    1
    43     7     9    1
    44     7    10    1
    45     2    23    1
    46    23    25    1
    47    23    26    1
    48    45    46    1
    49    45    43   ar
    50    41    43   ar
    51    41    42    1
    52    43    44    1
