@<TRIPOS>MOLECULE
3-phenyl-2-(2,4,5-tricyanophenylmethyl)-1H-indene
 43 46 0 0 0
SMALL
GASTEIGER

@<TRIPOS>ATOM
      1 N           0.5735    8.2113    5.5385 N.1     1  LIG1       -0.1909
      2 N           3.4195    8.0489   -0.7348 N.1     1  LIG1       -0.1908
      3 N           3.9984   12.0144   -0.4943 N.1     1  LIG1       -0.1908
      4 C           3.4419   10.4596    9.6262 C.ar    1  LIG1       -0.0577
      5 H           2.7356   10.5236   10.2273 H       1  LIG1        0.0621
      6 C           4.7279   10.1377   10.0676 C.ar    1  LIG1       -0.0615
      7 H           4.8753    9.9854   10.9738 H       1  LIG1        0.0618
      8 C           5.7754   10.0413    9.1885 C.ar    1  LIG1       -0.0612
      9 H           6.6206    9.8209    9.5051 H       1  LIG1        0.0618
     10 C           5.5940   10.2667    7.8441 C.ar    1  LIG1       -0.0537
     11 H           6.3095   10.2037    7.2535 H       1  LIG1        0.0624
     12 C           4.3196   10.5906    7.3826 C.ar    1  LIG1       -0.0139
     13 C           3.2420   10.6831    8.2772 C.ar    1  LIG1       -0.0356
     14 C           1.9977   11.0192    7.4830 C.3     1  LIG1       -0.0047
     15 H           1.3369   10.3134    7.5550 H       1  LIG1        0.0359
     16 H           1.6048   11.8519    7.7884 H       1  LIG1        0.0359
     17 C           2.4963   11.1461    6.0729 C.2     1  LIG1       -0.0526
     18 C           3.8348   10.8963    6.0275 C.2     1  LIG1       -0.0106
     19 C           4.7240   10.8933    4.8340 C.ar    1  LIG1       -0.0173
     20 C           5.1509   12.0875    4.2784 C.ar    1  LIG1       -0.0540
     21 H           4.9124   12.8958    4.6711 H       1  LIG1        0.0624
     22 C           5.9467   12.0763    3.1193 C.ar    1  LIG1       -0.0612
     23 H           6.2416   12.8786    2.7526 H       1  LIG1        0.0618
     24 C           6.2925   10.8862    2.5255 C.ar    1  LIG1       -0.0617
     25 H           6.8004   10.8811    1.7459 H       1  LIG1        0.0618
     26 C           5.8803    9.7021    3.0940 C.ar    1  LIG1       -0.0612
     27 H           6.1196    8.8948    2.7015 H       1  LIG1        0.0618
     28 C           5.1123    9.7041    4.2480 C.ar    1  LIG1       -0.0540
     29 H           4.8553    8.8968    4.6322 H       1  LIG1        0.0624
     30 C           1.5940   11.4975    4.9274 C.3     1  LIG1       -0.0040
     31 H           0.6785   11.2944    5.1769 H       1  LIG1        0.0359
     32 H           1.6495   12.4531    4.7684 H       1  LIG1        0.0359
     33 C           1.9159   10.7775    3.6542 C.ar    1  LIG1       -0.0247
     34 C           1.7020    9.3954    3.5428 C.ar    1  LIG1        0.0565
     35 C           2.0641    8.6835    2.4114 C.ar    1  LIG1       -0.0254
     36 H           1.9097    7.7676    2.3659 H       1  LIG1        0.0644
     37 C           2.6561    9.3396    1.3505 C.ar    1  LIG1        0.0703
     38 C           2.8499   10.7328    1.4244 C.ar    1  LIG1        0.0694
     39 C           2.4678   11.4142    2.5571 C.ar    1  LIG1       -0.0384
     40 H           2.5843   12.3363    2.5848 H       1  LIG1        0.0634
     41 C           1.0899    8.7099    4.6480 C.1     1  LIG1        0.0995
     42 C           3.0822    8.6125    0.1897 C.1     1  LIG1        0.1005
     43 C           3.4859   11.4447    0.3484 C.1     1  LIG1        0.1005
@<TRIPOS>BOND
     1     2    42    3
     2     3    43    3
     3    42    37    1
     4    43    38    1
     5    37    38   ar
     6    37    35   ar
     7    38    39   ar
     8    25    24    1
     9    36    35    1
    10    35    34   ar
    11    24    26   ar
    12    24    22   ar
    13    39    40    1
    14    39    33   ar
    15    27    26    1
    16    23    22    1
    17    26    28   ar
    18    22    20   ar
    19    34    33   ar
    20    34    41    1
    21    33    30    1
    22    28    29    1
    23    28    19   ar
    24    20    21    1
    25    20    19   ar
    26    41     1    3
    27    32    30    1
    28    19    18    1
    29    30    31    1
    30    30    17    1
    31    18    17    2
    32    18    12    1
    33    17    14    1
    34    11    10    1
    35    12    10   ar
    36    12    13   ar
    37    14    15    1
    38    14    16    1
    39    14    13    1
    40    10     8   ar
    41    13     4   ar
    42     8     9    1
    43     8     6   ar
    44     4     6   ar
    45     4     5    1
    46     6     7    1
