@<TRIPOS>MOLECULE
p-Phenylene bis(benzenesulfonate)
 40 40 0 0 0
SMALL
GASTEIGER

@<TRIPOS>ATOM
      1 S          -6.7123    6.6109    8.8465 S.O2    1  LIG1        0.1511
      2 S          -0.4189    5.0847    3.5735 S.O2    2  LIG2        0.1511
      3 O          -5.6845    7.3400    9.8302 O.2     1  LIG1       -0.3388
      4 O          -7.5711    7.6588    8.4592 O.2     1  LIG1       -0.1314
      5 O          -7.2472    5.4575    9.4839 O.2     1  LIG1       -0.1314
      6 O          -1.5955    4.4456    2.6971 O.2     2  LIG2       -0.3388
      7 O          -0.3415    6.4695    3.2855 O.2     2  LIG2       -0.1314
      8 O          -0.7258    4.6339    4.8778 O.2     2  LIG2       -0.1314
      9 C          -5.7065    6.1178    7.5018 C.ar    1  LIG1        0.1281
     10 C          -5.7218    4.7955    7.1394 C.ar    1  LIG1       -0.0334
     11 H          -6.2202    4.1804    7.6259 H       1  LIG1        0.0638
     12 C          -5.0035    4.3972    6.0657 C.ar    1  LIG1       -0.0598
     13 H          -5.0226    3.5039    5.8064 H       1  LIG1        0.0618
     14 C          -4.2650    5.2747    5.3720 C.ar    1  LIG1       -0.0616
     15 H          -3.7841    4.9820    4.6307 H       1  LIG1        0.0618
     16 C          -4.2048    6.6074    5.7388 C.ar    1  LIG1       -0.0598
     17 H          -3.6684    7.2011    5.2645 H       1  LIG1        0.0618
     18 C          -4.9564    7.0500    6.8280 C.ar    1  LIG1       -0.0334
     19 H          -4.9500    7.9429    7.0884 H       1  LIG1        0.0638
     20 C          -4.6706    6.5734   10.4526 C.2     1  LIG1        0.1971
     21 C          -4.9824    5.7369   11.4964 C.2     1  LIG1       -0.0313
     22 H          -5.8649    5.6274   11.7690 H       1  LIG1        0.0614
     23 C          -3.9618    5.0640   12.1314 C.3     1  LIG1       -0.0051
     24 H          -4.1459    4.4870   12.8372 H       1  LIG1        0.0356
     25 C           1.0132    4.2803    2.9774 C.ar    2  LIG2        0.1281
     26 C           1.8350    4.9216    2.0755 C.ar    2  LIG2       -0.0334
     27 H           1.6413    5.7834    1.7851 H       2  LIG2        0.0638
     28 C           2.9546    4.2499    1.6134 C.ar    2  LIG2       -0.0598
     29 H           3.5106    4.6597    0.9895 H       2  LIG2        0.0618
     30 C           3.2532    2.9931    2.0610 C.ar    2  LIG2       -0.0616
     31 H           4.0160    2.5605    1.7508 H       2  LIG2        0.0618
     32 C           2.4362    2.3692    2.9619 C.ar    2  LIG2       -0.0598
     33 H           2.6413    1.5125    3.2600 H       2  LIG2        0.0618
     34 C           1.3152    3.0069    3.4240 C.ar    2  LIG2       -0.0334
     35 H           0.7589    2.5841    4.0368 H       2  LIG2        0.0638
     36 C          -1.6909    4.7575    1.3186 C.2     2  LIG2        0.1971
     37 C          -2.1883    5.9753    0.9253 C.2     2  LIG2       -0.0313
     38 H          -2.4102    6.6222    1.5546 H       2  LIG2        0.0614
     39 C          -2.3512    6.2207   -0.4222 C.3     2  LIG2       -0.0051
     40 H          -2.6826    7.0377   -0.7180 H       2  LIG2        0.0356
@<TRIPOS>BOND
     1    40    39    1
     2    39    37    1
     3    37    36    2
     4    37    38    1
     5    29    28    1
     6    36     6    1
     7    28    30   ar
     8    28    26   ar
     9    31    30    1
    10    27    26    1
    11    30    32   ar
    12    26    25   ar
    13     6     2    1
    14    32    33    1
    15    32    34   ar
    16    25    34   ar
    17    25     2    1
    18     7     2    2
    19    34    35    1
    20     2     8    2
    21    15    14    1
    22    17    16    1
    23    14    16   ar
    24    14    12   ar
    25    16    18   ar
    26    13    12    1
    27    12    10   ar
    28    18    19    1
    29    18     9   ar
    30    10     9   ar
    31    10    11    1
    32     9     1    1
    33     4     1    2
    34     1     5    2
    35     1     3    1
    36     3    20    1
    37    20    21    2
    38    21    22    1
    39    21    23    1
    40    23    24    1
