@<TRIPOS>MOLECULE
ammonium oxalate oxalic acid dihydrate
 26 20 0 0 0
SMALL
GASTEIGER

@<TRIPOS>ATOM
      1 O           2.7354    4.3171    4.4651 O.2     1  LIG1       -0.2378
      2 O           2.4306    0.1935    3.5945 O.3     2  LIG2       -0.4726
      3 O           1.0409    3.1526    3.5744 O.3     1  LIG1       -0.4726
      4 O           0.8060   -1.1366    4.3773 O.2     2  LIG2       -0.2378
      5 O           4.4047    2.8883    1.9264 O.3     1  LIG1       -0.4725
      6 O           4.3290    1.0281    0.6982 O.2     1  LIG1       -0.2376
      7 O           4.1788    2.5668   -1.5382 O.co2   1  LIG1       -0.2332
      8 O           4.2827    4.3859   -0.2315 O.co2   1  LIG1       -0.2332
      9 O           1.1257    0.3626    1.5006 O.3     2  LIG2       -0.4105
     10 O           5.0364    1.4209    3.8648 O.3     3  HOH3       -0.4105
     11 N           4.0938    5.8107    2.3188 N.4     4  LIG4        0.2099
     12 C           1.8584    3.4678    4.5167 C.2     1  LIG1        0.4148
     13 C           1.8422   -0.5131    4.5008 C.2     2  LIG2        0.4148
     14 C           4.3297    2.2381    0.8065 C.2     1  LIG1        0.4191
     15 C           4.2514    3.1635   -0.4323 C.2     1  LIG1        0.4619
     16 H           1.1139    1.2105    1.2130 H       0  HOH0        0.2052
     17 H           1.4572   -0.0640    0.8576 H       0  HOH0        0.2052
     18 H           4.4304    1.1105    4.5152 H       0  HOH0        0.2052
     19 H           5.6946    1.7419    4.3561 H       0  HOH0        0.2052
     20 H           4.6558    2.2884    2.6781 H       1  LIG1        0.2956
     21 H           1.9279    0.2378    2.7143 H       2  LIG2        0.2956
     22 H           1.1721    3.6967    2.6957 H       1  LIG1        0.2956
     23 H           3.5151    5.4374    2.8972 H       3  HOH3        0.1975
     24 H           4.8227    5.9292    2.7742 H       3  HOH3        0.1975
     25 H           3.7724    6.5560    1.9425 H       3  HOH3        0.1975
     26 H           4.1389    5.2035    1.6521 H       3  HOH3        0.1975
@<TRIPOS>BOND
     1     7    15   ar
     2    15     8   ar
     3    15    14    1
     4     6    14    2
     5    14     5    1
     6    17     9    1
     7    16     9    1
     8    26    11    1
     9     5    20    1
    10    25    11    1
    11    11    24    1
    12    11    23    1
    13    22     3    1
    14    21     2    1
    15     3    12    1
    16     2    13    1
    17    10    19    1
    18    10    18    1
    19     4    13    2
    20     1    12    2
