@<TRIPOS>MOLECULE
3,3'-(Pyridine-2,6-diyl)bis(4-allyl-4,5-dihydro-1H-1,2,4-triazole-5-thione)
 78 82 0 0 0
SMALL
GASTEIGER

@<TRIPOS>ATOM
      1 S           8.7584   13.1450    8.6072 S.2     1  LIG1       -0.0114
      2 S           3.6689    6.6010   14.2127 S.2     1  LIG1       -0.0114
      3 N           6.7693   14.8351   11.4684 N.ar    1  LIG1       -0.1517
      4 N           7.5139   14.8136   10.3286 N.ar    1  LIG1       -0.2539
      5 H           7.7680   15.5253    9.9184 H       1  LIG1        0.1911
      6 N           7.1935   12.7727   10.8273 N.ar    1  LIG1       -0.2982
      7 N           5.4560   11.9673   13.2128 N.ar    1  LIG1       -0.2404
      8 N           3.6947   10.1450   15.8031 N.ar    1  LIG1       -0.1517
      9 N           3.4349    8.8107   15.7729 N.ar    1  LIG1       -0.2539
     10 H           3.0507    8.3933   16.4197 H       1  LIG1        0.1911
     11 N           4.3949    9.2274   13.9171 N.ar    1  LIG1       -0.2982
     12 C           6.5954   13.5767   11.7641 C.ar    1  LIG1        0.1813
     13 C           7.8112   13.5821    9.9073 C.ar    1  LIG1        0.1761
     14 C           7.2915   11.3232   10.7604 C.3     1  LIG1        0.0450
     15 H           7.1755   10.9604   11.6531 H       1  LIG1        0.0536
     16 H           8.1821   11.0832   10.4591 H       1  LIG1        0.0536
     17 C           6.3010   10.7023    9.8613 C.2     1  LIG1       -0.0715
     18 H           6.3997    9.7921    9.6948 H       1  LIG1        0.0584
     19 C           5.3095   11.2941    9.2794 C.2     1  LIG1       -0.1010
     20 H           5.1686   12.2042    9.4141 H       1  LIG1        0.0532
     21 H           4.7378   10.8103    8.7275 H       1  LIG1        0.0532
     22 C           5.8492   13.2278   12.9906 C.ar    1  LIG1        0.1087
     23 C           5.5637   14.2781   13.8556 C.ar    1  LIG1       -0.0326
     24 H           5.8682   15.1372   13.6717 H       1  LIG1        0.0640
     25 C           4.8265   14.0309   14.9830 C.ar    1  LIG1       -0.0575
     26 H           4.6262   14.7176   15.5777 H       1  LIG1        0.0619
     27 C           4.3874   12.7469   15.2233 C.ar    1  LIG1       -0.0326
     28 H           3.8705   12.5549   15.9725 H       1  LIG1        0.0640
     29 C           4.7317   11.7503   14.3269 C.ar    1  LIG1        0.1087
     30 C           4.2875   10.3794   14.6583 C.ar    1  LIG1        0.1813
     31 C           3.8321    8.2056   14.6510 C.ar    1  LIG1        0.1761
     32 C           5.0119    9.0074   12.6052 C.3     1  LIG1        0.0450
     33 H           4.9660    9.8233   12.0828 H       1  LIG1        0.0536
     34 H           4.5241    8.3170   12.1288 H       1  LIG1        0.0536
     35 C           6.4465    8.5916   12.7615 C.2     1  LIG1       -0.0715
     36 H           7.0328    9.1615   13.2055 H       1  LIG1        0.0584
     37 C           6.9032    7.4585   12.2969 C.2     1  LIG1       -0.1010
     38 H           6.3328    6.8757   11.8497 H       1  LIG1        0.0532
     39 H           7.7984    7.2352   12.4127 H       1  LIG1        0.0532
     40 S           2.2714    8.5818    6.6716 S.2     2  LIG2       -0.0114
     41 S          -0.6320    1.9807   13.4995 S.2     2  LIG2       -0.0114
     42 N           1.1583   10.2441   10.0016 N.ar    2  LIG2       -0.1517
     43 N           1.4934   10.2260    8.6835 N.ar    2  LIG2       -0.2539
     44 H           1.4886   10.9295    8.1900 H       2  LIG2        0.1911
     45 N           1.6953    8.2088    9.3266 N.ar    2  LIG2       -0.2982
     46 N           0.6656    7.3790   12.0893 N.ar    2  LIG2       -0.2404
     47 N          -0.7311    5.6068   14.8893 N.ar    2  LIG2       -0.1517
     48 N          -0.9761    4.2640   14.9190 N.ar    2  LIG2       -0.2539
     49 H          -1.3801    3.8735   15.5697 H       2  LIG2        0.1911
     50 N           0.0207    4.6049   13.0718 N.ar    2  LIG2       -0.2982
     51 C           1.2946    8.9996   10.3782 C.ar    2  LIG2        0.1813
     52 C           1.8271    9.0243    8.2260 C.ar    2  LIG2        0.1761
     53 C           2.0161    6.7843    9.3063 C.3     2  LIG2        0.0450
     54 H           1.5169    6.3477   10.0135 H       2  LIG2        0.0536
     55 H           1.7121    6.4137    8.4643 H       2  LIG2        0.0536
     56 C           3.4286    6.4558    9.4712 C.2     2  LIG2       -0.0715
     57 H           3.6255    5.5603    9.6235 H       2  LIG2        0.0584
     58 C           4.4284    7.2507    9.4284 C.2     2  LIG2       -0.1010
     59 H           4.2951    8.1590    9.2794 H       2  LIG2        0.0532
     60 H           5.2897    6.9216    9.5489 H       2  LIG2        0.0532
     61 C           1.0028    8.6384   11.7757 C.ar    2  LIG2        0.1087
     62 C           1.0277    9.6755   12.7028 C.ar    2  LIG2       -0.0326
     63 H           1.2888   10.5305   12.4491 H       2  LIG2        0.0640
     64 C           0.6604    9.4103   13.9999 C.ar    2  LIG2       -0.0575
     65 H           0.6512   10.0905   14.6326 H       2  LIG2        0.0619
     66 C           0.3040    8.1284   14.3523 C.ar    2  LIG2       -0.0326
     67 H           0.0561    7.9245   15.2241 H       2  LIG2        0.0640
     68 C           0.3271    7.1488   13.3672 C.ar    2  LIG2        0.1087
     69 C          -0.1091    5.7930   13.7591 C.ar    2  LIG2        0.1813
     70 C          -0.5315    3.6151   13.8472 C.ar    2  LIG2        0.1761
     71 C           0.5974    4.3302   11.7387 C.3     2  LIG2        0.0450
     72 H           0.0930    3.6157   11.3170 H       2  LIG2        0.0536
     73 H           0.5072    5.1216   11.1853 H       2  LIG2        0.0536
     74 C           1.9761    3.9560   11.7958 C.2     2  LIG2       -0.0715
     75 H           2.5654    4.5178   12.2414 H       2  LIG2        0.0584
     76 C           2.4644    2.8403   11.2408 C.2     2  LIG2       -0.1010
     77 H           1.8979    2.2594   10.7889 H       2  LIG2        0.0532
     78 H           3.3716    2.6476   11.3090 H       2  LIG2        0.0532
@<TRIPOS>BOND
     1    40    52    2
     2    44    43    1
     3    52    43   ar
     4    52    45   ar
     5    55    53    1
     6     1    13    2
     7    43    42   ar
     8    21    19    1
     9    59    58    1
    10    19    20    1
    11    19    17    2
    12    53    45    1
    13    53    56    1
    14    53    54    1
    15    45    51   ar
    16    58    56    2
    17    58    60    1
    18    56    57    1
    19    18    17    1
    20    17    14    1
    21    13     4   ar
    22    13     6   ar
    23     5     4    1
    24    42    51   ar
    25     4     3   ar
    26    51    61    1
    27    16    14    1
    28    14     6    1
    29    14    15    1
    30    77    76    1
    31     6    12   ar
    32    73    71    1
    33    76    78    1
    34    76    74    2
    35    72    71    1
    36     3    12   ar
    37    71    74    1
    38    71    50    1
    39    12    22    1
    40    61    46   ar
    41    61    62   ar
    42    74    75    1
    43    38    37    1
    44    33    32    1
    45    46    68   ar
    46    34    32    1
    47    37    39    1
    48    37    35    2
    49    63    62    1
    50    32    35    1
    51    32    11    1
    52    62    64   ar
    53    35    36    1
    54    22     7   ar
    55    22    23   ar
    56    50    69   ar
    57    50    70   ar
    58     7    29   ar
    59    68    69    1
    60    68    66   ar
    61    41    70    2
    62    24    23    1
    63    69    47   ar
    64    70    48   ar
    65    23    25   ar
    66    11    31   ar
    67    11    30   ar
    68    64    66   ar
    69    64    65    1
    70     2    31    2
    71    29    30    1
    72    29    27   ar
    73    66    67    1
    74    31     9   ar
    75    30     8   ar
    76    47    48   ar
    77    48    49    1
    78    25    27   ar
    79    25    26    1
    80    27    28    1
    81     9     8   ar
    82     9    10    1
