@<TRIPOS>MOLECULE
1\a,6,11\b,15\b-Tetraacetoxy-6,7-seco-7,20-olide-ent-kaur-16-ene
 76 79 0 0 0
SMALL
GASTEIGER

@<TRIPOS>ATOM
      1 O           5.3658    2.8794   13.8650 O.3     1  LIG1       -0.4634
      2 O           4.6771    2.8120   15.9307 O.2     1  LIG1       -0.2501
      3 O           6.0869    5.4083   14.6104 O.3     1  LIG1       -0.4608
      4 O           6.6206    7.4923   15.2225 O.2     1  LIG1       -0.2512
      5 O           2.6088    4.6258   10.3812 O.3     1  LIG1       -0.4645
      6 O           2.3681    6.3037    8.9276 O.2     1  LIG1       -0.2512
      7 O           3.0380    7.2795   12.2980 O.3     1  LIG1       -0.4612
      8 O           2.9108    9.2846   13.2907 O.2     1  LIG1       -0.2512
      9 O           2.0694    2.7629   13.0207 O.3     1  LIG1       -0.4559
     10 O           0.8926    1.0051   13.7515 O.2     1  LIG1       -0.2511
     11 C           6.0289    5.7824   13.1972 C.3     1  LIG1        0.1125
     12 H           5.7559    6.7225   13.1480 H       1  LIG1        0.0741
     13 C           7.3851    5.6705   12.5770 C.3     1  LIG1       -0.0145
     14 H           7.6470    4.7376   12.5168 H       1  LIG1        0.0301
     15 H           8.0393    6.1383   13.1188 H       1  LIG1        0.0301
     16 C           7.3183    6.2833   11.1921 C.3     1  LIG1       -0.0441
     17 H           8.1998    6.2474   10.7880 H       1  LIG1        0.0272
     18 H           7.0664    7.2176   11.2716 H       1  LIG1        0.0272
     19 C           6.3198    5.5758   10.2705 C.3     1  LIG1       -0.0281
     20 C           4.9234    5.3978   10.9898 C.3     1  LIG1        0.0110
     21 H           4.5167    6.2890   10.9869 H       1  LIG1        0.0347
     22 C           4.0130    4.5295   10.0822 C.3     1  LIG1        0.0965
     23 H           4.1523    4.7936    9.1586 H       1  LIG1        0.0700
     24 H           4.2849    3.6024   10.1654 H       1  LIG1        0.0700
     25 C           4.5267    3.2751   14.8305 C.2     1  LIG1        0.3177
     26 C           3.3855    4.2094   14.4953 C.3     1  LIG1        0.1157
     27 C           3.5605    5.1541   13.2341 C.3     1  LIG1        0.0282
     28 H           2.8874    4.8524   12.5888 H       1  LIG1        0.0356
     29 C           4.9424    4.9476   12.5230 C.3     1  LIG1        0.0555
     30 C           3.1716    6.6048   13.5855 C.3     1  LIG1        0.1083
     31 H           3.8893    7.0239   14.1050 H       1  LIG1        0.0737
     32 C           1.8499    6.7297   14.3367 C.3     1  LIG1       -0.0087
     33 H           1.1244    6.7856   13.6951 H       1  LIG1        0.0307
     34 H           1.8544    7.5506   14.8545 H       1  LIG1        0.0307
     35 C           1.5936    5.5298   15.2901 C.3     1  LIG1       -0.0122
     36 H           1.0364    5.7853   16.0533 H       1  LIG1        0.0348
     37 C           2.9509    5.0088   15.7333 C.3     1  LIG1       -0.0263
     38 H           2.8752    4.4405   16.5147 H       1  LIG1        0.0283
     39 H           3.5661    5.7351   15.9213 H       1  LIG1        0.0283
     40 C           2.1062    3.3713   14.3175 C.3     1  LIG1        0.1402
     41 H           2.0672    2.6781   15.0088 H       1  LIG1        0.0793
     42 C           1.0085    4.3659   14.5372 C.2     1  LIG1       -0.0323
     43 C          -0.2084    4.2683   14.0501 C.2     1  LIG1       -0.0957
     44 H          -0.4402    3.5378   13.5236 H       1  LIG1        0.0536
     45 H          -0.8358    4.9285   14.2319 H       1  LIG1        0.0536
     46 C           6.1069    6.5201    9.0710 C.3     1  LIG1       -0.0594
     47 H           5.6801    7.3267    9.3696 H       1  LIG1        0.0235
     48 H           5.5519    6.0881    8.4177 H       1  LIG1        0.0235
     49 H           6.9561    6.7340    8.6784 H       1  LIG1        0.0235
     50 C           6.9416    4.2726    9.7431 C.3     1  LIG1       -0.0594
     51 H           7.7128    4.4793    9.2084 H       1  LIG1        0.0235
     52 H           6.2975    3.8033    9.2084 H       1  LIG1        0.0235
     53 H           7.2046    3.7200   10.4827 H       1  LIG1        0.0235
     54 C           5.1920    3.4420   12.5470 C.3     1  LIG1        0.1022
     55 H           4.4442    2.9981   12.1172 H       1  LIG1        0.0704
     56 H           5.9854    3.2522   12.0229 H       1  LIG1        0.0704
     57 C           6.4747    6.3364   15.5011 C.2     1  LIG1        0.3042
     58 C           6.6753    5.7178   16.8377 C.3     1  LIG1        0.0332
     59 H           7.6047    5.7609   17.0738 H       1  LIG1        0.0342
     60 H           6.3933    4.8007   16.8114 H       1  LIG1        0.0342
     61 H           6.1571    6.1943   17.4906 H       1  LIG1        0.0342
     62 C           1.9023    5.5714    9.7332 C.2     1  LIG1        0.3040
     63 C           0.4881    5.5557   10.1825 C.3     1  LIG1        0.0332
     64 H           0.3421    6.2704   10.8068 H       1  LIG1        0.0342
     65 H           0.2964    4.7161   10.6079 H       1  LIG1        0.0342
     66 H          -0.0903    5.6690    9.4245 H       1  LIG1        0.0342
     67 C           2.9242    8.6198   12.2853 C.2     1  LIG1        0.3042
     68 C           2.8194    9.1279   10.8993 C.3     1  LIG1        0.0332
     69 H           2.8763   10.0866   10.9046 H       1  LIG1        0.0342
     70 H           1.9781    8.8595   10.5221 H       1  LIG1        0.0342
     71 H           3.5360    8.7676   10.3712 H       1  LIG1        0.0342
     72 C           1.4053    1.6060   12.8564 C.2     1  LIG1        0.3045
     73 C           1.3852    1.2300   11.4138 C.3     1  LIG1        0.0333
     74 H           1.1467    0.3043   11.3282 H       1  LIG1        0.0342
     75 H           2.2555    1.3721   11.0332 H       1  LIG1        0.0342
     76 H           0.7411    1.7710   10.9509 H       1  LIG1        0.0342
@<TRIPOS>BOND
     1    48    46    1
     2    49    46    1
     3     6    62    2
     4    46    47    1
     5    46    19    1
     6    23    22    1
     7    52    50    1
     8    51    50    1
     9    66    63    1
    10    62    63    1
    11    62     5    1
    12    50    19    1
    13    50    53    1
    14    22    24    1
    15    22     5    1
    16    22    20    1
    17    63    65    1
    18    63    64    1
    19    19    20    1
    20    19    16    1
    21    71    68    1
    22    70    68    1
    23    17    16    1
    24    68    69    1
    25    68    67    1
    26    76    73    1
    27    21    20    1
    28    20    29    1
    29    75    73    1
    30    16    18    1
    31    16    13    1
    32    74    73    1
    33    73    72    1
    34    56    54    1
    35    55    54    1
    36    67     7    1
    37    67     8    2
    38     7    30    1
    39    14    13    1
    40    29    54    1
    41    29    11    1
    42    29    27    1
    43    54     1    1
    44    13    15    1
    45    13    11    1
    46    28    27    1
    47    72     9    1
    48    72    10    2
    49     9    40    1
    50    12    11    1
    51    11     3    1
    52    27    30    1
    53    27    26    1
    54    44    43    1
    55    30    31    1
    56    30    32    1
    57    33    32    1
    58     1    25    1
    59    43    45    1
    60    43    42    2
    61    40    26    1
    62    40    42    1
    63    40    41    1
    64    32    34    1
    65    32    35    1
    66    26    25    1
    67    26    37    1
    68    42    35    1
    69     3    57    1
    70    25     2    2
    71     4    57    2
    72    35    37    1
    73    35    36    1
    74    57    58    1
    75    37    39    1
    76    37    38    1
    77    60    58    1
    78    58    59    1
    79    58    61    1
