@<TRIPOS>MOLECULE
3-nitrophenylanilinium perchlorate--3-nitroaniline (1/1)
 35 32 0 0 0
SMALL
GASTEIGER

@<TRIPOS>ATOM
      1 CL          5.6591   15.1834    4.7920 Cl      1  LIG1        0.1011
      2 O           5.6377   16.6302    4.7920 O.3     1  LIG1       -0.1011
      3 O           6.4042   14.7176    3.6068 O.3     1  LIG1        0.0000
      4 O           4.3067   14.6559    4.7920 O.3     2  HOH2        0.0000
      5 O           8.9269   10.5130    1.5974 O.2     3  LIG3       -0.1261
      6 O           8.1659    8.5356    1.5974 O.2     3  LIG3       -0.1261
      7 O           2.9574   20.0080    1.5974 O.2     4  LIG4       -0.1261
      8 O           3.8197   21.9669    1.5974 O.2     4  LIG4       -0.1261
      9 N           4.9393   13.5207    1.5974 N.pl3   3  LIG3       -0.3579
     10 N           8.0234    9.7325    1.5974 N.pl3   3  LIG3        0.0565
     11 N           6.7929   16.8152    1.5974 N.pl3   4  LIG4       -0.2665
     12 N           3.9060   20.7514    1.5974 N.pl3   4  LIG4        0.0565
     13 C           5.1689   12.0832    1.5974 C.ar    3  LIG3        0.0267
     14 C           6.4643   11.6204    1.5974 C.ar    3  LIG3       -0.0108
     15 C           6.6465   10.2508    1.5974 C.ar    3  LIG3        0.1279
     16 C           5.5870    9.3624    1.5974 C.ar    3  LIG3       -0.0314
     17 C           4.3043    9.8652    1.5974 C.ar    3  LIG3       -0.0579
     18 C           4.1000   11.2318    1.5974 C.ar    3  LIG3       -0.0409
     19 C           6.6338   18.2620    1.5974 C.ar    4  LIG4        0.0465
     20 C           5.3598   18.7957    1.5974 C.ar    4  LIG4       -0.0091
     21 C           5.2608   20.1653    1.5974 C.ar    4  LIG4        0.1280
     22 C           6.3448   21.0075    1.5974 C.ar    4  LIG4       -0.0314
     23 C           7.6061   20.4368    1.5974 C.ar    4  LIG4       -0.0578
     24 C           7.7582   19.0671    1.5974 C.ar    4  LIG4       -0.0393
     25 H           5.3447   13.8816    0.9456 H       3  LIG3        0.1423
     26 H           4.1095   13.6965    1.5974 H       3  LIG3        0.1423
     27 H           6.4928   16.5037    2.3257 H       4  LIG4        0.1699
     28 H           7.1873   12.2066    1.5974 H       3  LIG3        0.0659
     29 H           5.7375    8.4431    1.5974 H       3  LIG3        0.0640
     30 H           3.5774    9.2852    1.5974 H       3  LIG3        0.0619
     31 H           3.2338   11.5711    1.5974 H       3  LIG3        0.0636
     32 H           4.6044   18.2528    1.5974 H       4  LIG4        0.0659
     33 H           6.2355   21.9298    1.5974 H       4  LIG4        0.0640
     34 H           8.3583   20.9828    1.5974 H       4  LIG4        0.0619
     35 H           8.6078   18.6908    1.5974 H       4  LIG4        0.0636
@<TRIPOS>BOND
     1    25     9    1
     2    18    31    1
     3    18    17   ar
     4    18    13   ar
     5    19    20   ar
     6    19    24   ar
     7    19    11    1
     8    20    21   ar
     9    20    32    1
    10    21    22   ar
    11    21    12    1
    12    22    23   ar
    13    22    33    1
    14    23    24   ar
    15    23    34    1
    16    24    35    1
    17    26     9    1
    18    28    14    1
    19    29    16    1
    20    30    17    1
    21    17    16   ar
    22    16    15   ar
    23    15    14   ar
    24    15    10    1
    25    14    13   ar
    26    13     9    1
    27    12     8    2
    28    12     7    2
    29    11    27    1
    30    10     5    2
    31    10     6    2
    32     2     1    1
