@<TRIPOS>MOLECULE
Pyridin-4-ylmethanediol
 16 16 0 0 0
SMALL
GASTEIGER

@<TRIPOS>ATOM
      1 O           8.4716    1.6527    7.0110 O.3     1  LIG1       -0.3634
      2 O           6.2189    1.3135    7.5218 O.3     1  LIG1       -0.3634
      3 N           6.4577    1.5149    2.5063 N.ar    1  LIG1       -0.2632
      4 C           7.7052    1.5964    2.9805 C.ar    1  LIG1        0.0280
      5 C           8.0138    1.4507    4.3213 C.ar    1  LIG1       -0.0356
      6 C           6.9959    1.1862    5.2263 C.ar    1  LIG1        0.0103
      7 C           5.6995    1.1009    4.7402 C.ar    1  LIG1       -0.0356
      8 C           5.4794    1.2776    3.3831 C.ar    1  LIG1        0.0280
      9 C           7.2915    0.9493    6.6934 C.3     1  LIG1        0.1802
     10 H           8.4122    1.7619    2.3682 H       1  LIG1        0.0829
     11 H           8.6682    1.4135    7.9200 H       1  LIG1        0.2128
     12 H           8.9121    1.5309    4.6188 H       1  LIG1        0.0637
     13 H           6.0506    2.2133    7.3958 H       1  LIG1        0.2128
     14 H           4.9744    0.9242    5.3279 H       1  LIG1        0.0637
     15 H           4.5875    1.2275    3.0603 H       1  LIG1        0.0829
     16 H           7.4667   -0.0268    6.8220 H       1  LIG1        0.0960
@<TRIPOS>BOND
     1    10     4    1
     2     3     4   ar
     3     3     8   ar
     4     4     5   ar
     5    15     8    1
     6     8     7   ar
     7     5    12    1
     8     5     6   ar
     9     7     6   ar
    10     7    14    1
    11     6     9    1
    12     9    16    1
    13     9     1    1
    14     9     2    1
    15     1    11    1
    16    13     2    1
