@<TRIPOS>MOLECULE
4-sulfonato-L-phenylalaninium
 27 27 0 0 0
SMALL
GASTEIGER

@<TRIPOS>ATOM
      1 S           3.3188    5.1396    8.4985 S.3     1  LIG1        0.1396
      2 O           3.8292    3.8989    9.1192 O.3     1  LIG1       -0.0427
      3 O           4.1849    6.2683    8.7182 O.2     1  LIG1       -0.1397
      4 O           1.9326    5.3765    8.9024 O.2     1  LIG1       -0.1397
      5 O           2.7449    6.4269    1.6010 O.2     1  LIG1       -0.2446
      6 OXT         0.5562    5.9639    1.7679 O.3     1  LIG1       -0.4767
      7 HXT         0.4663    6.7534    1.5661 H       1  LIG1        0.2953
      8 N           2.1154    3.5974    0.4521 N.4     1  LIG1        0.2290
      9 H1          1.3630    3.7929    0.0193 H       1  LIG1        0.2003
     10 H2          2.2185    2.7136    0.4847 H       1  LIG1        0.2003
     11 H3          2.8061    3.9608    0.0244 H       1  LIG1        0.2003
     12 C           3.2827    4.8098    6.7568 C.ar    1  LIG1        0.1196
     13 C           2.2911    3.9929    6.2361 C.ar    1  LIG1       -0.0340
     14 H           1.6156    3.6662    6.7856 H       1  LIG1        0.0637
     15 C           2.3160    3.6662    4.8827 C.ar    1  LIG1       -0.0565
     16 H           1.6676    3.0963    4.5373 H       1  LIG1        0.0621
     17 C           3.2998    4.1816    4.0358 C.ar    1  LIG1       -0.0414
     18 C           4.2635    5.0235    4.5726 C.ar    1  LIG1       -0.0565
     19 H           4.9156    5.3869    4.0180 H       1  LIG1        0.0621
     20 C           4.2680    5.3309    5.9362 C.ar    1  LIG1       -0.0340
     21 H           4.9286    5.8825    6.2897 H       1  LIG1        0.0637
     22 C           3.3462    3.7954    2.5713 C.3     1  LIG1        0.0259
     23 H           3.5077    2.8421    2.4978 H       1  LIG1        0.0374
     24 H           4.0848    4.2563    2.1434 H       1  LIG1        0.0374
     25 CA          2.0476    4.1421    1.8421 C.3     1  LIG1        0.0782
     26 HA          1.2896    3.7387    2.3145 H       1  LIG1        0.0971
     27 C           1.8375    5.6438    1.7336 C.2     1  LIG1        0.3539
@<TRIPOS>BOND
     1     9     8    1
     2    11     8    1
     3     8    10    1
     4     8    25    1
     5     7     6    1
     6     5    27    2
     7    27     6    1
     8    27    25    1
     9    25    26    1
    10    25    22    1
    11    24    22    1
    12    23    22    1
    13    22    17    1
    14    19    18    1
    15    17    18   ar
    16    17    15   ar
    17    16    15    1
    18    18    20   ar
    19    15    13   ar
    20    20    21    1
    21    20    12   ar
    22    13    12   ar
    23    13    14    1
    24    12     1    1
    25     1     3    2
    26     1     4    2
    27     1     2    1
