@<TRIPOS>MOLECULE
(4RS,6SR)2-amino-6-phenyl-4-p-tolyl-5,6-dihydro-4H-1,3-thiazin-3-ium chloride
 40 41 0 0 0
SMALL
GASTEIGER

@<TRIPOS>ATOM
      1 C           5.4192   13.2701   11.8171 C.3     1  LIG1        0.0350
      2 H           5.3736   12.6981   12.6363 H       1  LIG1        0.0462
      3 C           4.0113   13.5397   11.3513 C.3     1  LIG1       -0.0173
      4 H           3.6212   12.6996   11.0037 H       1  LIG1        0.0297
      5 H           4.0377   14.1915   10.6070 H       1  LIG1        0.0297
      6 C           3.1171   14.0812   12.4523 C.3     1  LIG1        0.0366
      7 H           3.0631   13.3981   13.1817 H       1  LIG1        0.0511
      8 C           4.9280   15.7263   12.9966 C.3     1  LIG1        0.1591
      9 C           1.7217   14.3449   11.9386 C.ar    1  LIG1       -0.0303
     10 C           0.7334   13.3846   12.0936 C.ar    1  LIG1       -0.0568
     11 H           0.9398   12.5683   12.5316 H       1  LIG1        0.0621
     12 C          -0.5461   13.5976   11.6189 C.ar    1  LIG1       -0.0585
     13 H          -1.2099   12.9285   11.7419 H       1  LIG1        0.0620
     14 C          -0.8750   14.7754   10.9668 C.ar    1  LIG1       -0.0504
     15 C           0.1200   15.7237   10.7824 C.ar    1  LIG1       -0.0585
     16 H          -0.0792   16.5293   10.3187 H       1  LIG1        0.0620
     17 C           1.3995   15.5132   11.2634 C.ar    1  LIG1       -0.0568
     18 H           2.0656   16.1764   11.1304 H       1  LIG1        0.0621
     19 C          -2.2721   15.0403   10.4739 C.3     1  LIG1       -0.0397
     20 H          -2.7186   14.1886   10.2857 H       1  LIG1        0.0278
     21 H          -2.2325   15.5770    9.6558 H       1  LIG1        0.0278
     22 H          -2.7738   15.5274   11.1598 H       1  LIG1        0.0278
     23 C           6.3254   12.5905   10.8179 C.ar    1  LIG1       -0.0343
     24 C           7.5328   12.0663   11.2457 C.ar    1  LIG1       -0.0575
     25 H           7.7705   12.1396   12.1625 H       1  LIG1        0.0621
     26 C           8.3970   11.4407   10.3735 C.ar    1  LIG1       -0.0615
     27 H           9.2228   11.0881   10.6842 H       1  LIG1        0.0618
     28 C           8.0453   11.3341    9.0443 C.ar    1  LIG1       -0.0617
     29 H           8.6371   10.9145    8.4309 H       1  LIG1        0.0618
     30 C           6.8391   11.8333    8.6008 C.ar    1  LIG1       -0.0615
     31 H           6.5930   11.7385    7.6890 H       1  LIG1        0.0618
     32 C           5.9893   12.4721    9.4786 C.ar    1  LIG1       -0.0575
     33 H           5.1683   12.8337    9.1636 H       1  LIG1        0.0621
     34 N           3.6759   15.3203   13.0140 N.3     1  LIG1       -0.2803
     35 H           3.1027   15.8570   13.4112 H       1  LIG1        0.1251
     36 N           5.2329   16.8934   13.5198 N.3     1  LIG1       -0.3011
     37 H           4.6030   17.3941   13.8758 H       1  LIG1        0.1208
     38 H           6.0673   17.1739   13.5141 H       1  LIG1        0.1208
     39 S           6.2351   14.8467   12.2651 S.3     1  LIG1       -0.1113
     40 CL          2.2042   17.9742   13.9267 Cl      2  LIG2        0.0000
@<TRIPOS>BOND
     1    31    30    1
     2    29    28    1
     3    30    28   ar
     4    30    32   ar
     5    28    26   ar
     6    33    32    1
     7    32    23   ar
     8    21    19    1
     9    20    19    1
    10    16    15    1
    11    26    27    1
    12    26    24   ar
    13    19    14    1
    14    19    22    1
    15     5     3    1
    16    15    14   ar
    17    15    17   ar
    18    23    24   ar
    19    23     1    1
    20    14    12   ar
    21     4     3    1
    22    18    17    1
    23    24    25    1
    24    17     9   ar
    25     3     1    1
    26     3     6    1
    27    12    13    1
    28    12    10   ar
    29     1    39    1
    30     1     2    1
    31     9    10   ar
    32     9     6    1
    33    10    11    1
    34    39     8    1
    35     6    34    1
    36     6     7    1
    37     8    34    1
    38     8    36    1
    39    34    35    1
    40    38    36    1
    41    36    37    1
