@<TRIPOS>MOLECULE
2,2'-(1,2-dihydroxyethane-1,2-diyl)bis(benzimidazolylium) dinitrate
 23 23 0 0 0
SMALL
GASTEIGER

@<TRIPOS>ATOM
      1 O           2.9162    3.8504    4.5632 O.3     1  LIG1       -0.3855
      2 H           2.0725    3.9423    4.6163 H       1  LIG1        0.2100
      3 O           2.9327    1.3969    6.7755 O.2     2  LIG2       -0.0867
      4 O           1.7449    0.4170    5.2830 O.2     2  LIG2       -0.0867
      5 O           0.8864    1.9772    6.4543 O.2     2  LIG2       -0.0867
      6 N           3.5199    4.1368    7.2717 N.pl3   1  LIG1       -0.3229
      7 H           3.4386    3.3202    7.0520 H       1  LIG1        0.1478
      8 N           3.7065    6.2819    7.1069 N.3     1  LIG1       -0.2751
      9 H           3.7690    7.0597    6.7690 H       1  LIG1        0.1253
     10 N           1.8536    1.2663    6.1703 N.pl3   2  LIG2        0.2601
     11 C           3.5411    5.0544    4.9226 C.3     1  LIG1        0.1222
     12 H           3.0443    5.8117    4.5483 H       1  LIG1        0.0657
     13 C           3.5906    5.1676    6.4300 C.3     1  LIG1        0.1513
     14 C           3.6032    4.6260    8.5734 C.2     1  LIG1        0.0289
     15 C           3.6060    3.9795    9.7857 C.2     1  LIG1       -0.0573
     16 H           3.5218    3.0559    9.8471 H       1  LIG1        0.0594
     17 C           3.7399    4.7703   10.9057 C.3     1  LIG1        0.0067
     18 H           3.7527    4.3776   11.7484 H       1  LIG1        0.0395
     19 C           3.8522    6.1467   10.7875 C.2     1  LIG1       -0.0780
     20 H           3.9669    6.6450   11.5650 H       1  LIG1        0.0576
     21 C           3.8046    6.8129    9.5994 C.2     1  LIG1       -0.0594
     22 H           3.8317    7.7411    9.5473 H       1  LIG1        0.0592
     23 C           3.7125    5.9955    8.4561 C.3     1  LIG1        0.1046
@<TRIPOS>BOND
     1    12    11    1
     2     1     2    1
     3     1    11    1
     4    11    13    1
     5     4    10    2
     6    10     5    1
     7    10     3    2
     8    13     8    1
     9    13     6    1
    10     9     8    1
    11     7     6    1
    12     8    23    1
    13     6    14    1
    14    23    14    1
    15    23    21    1
    16    14    15    2
    17    22    21    1
    18    21    19    2
    19    15    16    1
    20    15    17    1
    21    19    17    1
    22    19    20    1
    23    17    18    1
