@<TRIPOS>MOLECULE
3-Bromo-2-ethoxy-2-phenylcyclohexan-1-one oxime
 36 37 0 0 0
SMALL
GASTEIGER

@<TRIPOS>ATOM
      1 C          19.6938    5.7749    8.5779 C.2     1  LIG1        0.0945
      2 N          18.4985    5.6859    8.1526 N.2     1  LIG1       -0.0932
      3 O          18.3749    4.8323    7.0438 O.2     1  LIG1       -0.4092
      4 H          17.6067    4.8609    6.7605 H       1  LIG1        0.3278
      5 C          19.9335    6.5335    9.8696 C.3     1  LIG1        0.1474
      6 O          20.3391    5.5653   10.8550 O.3     1  LIG1       -0.3620
      7 C          19.4554    4.4477   11.0700 C.3     1  LIG1        0.0465
      8 H          19.3591    3.9334   10.2525 H       1  LIG1        0.0557
      9 H          18.5793    4.7591   11.3451 H       1  LIG1        0.0557
     10 C          20.0627    3.6106   12.1368 C.3     1  LIG1       -0.0415
     11 H          19.5013    2.8513   12.3070 H       1  LIG1        0.0252
     12 H          20.1528    4.1295   12.9391 H       1  LIG1        0.0252
     13 H          20.9309    3.3090   11.8526 H       1  LIG1        0.0252
     14 C          21.2444    7.3570    9.7450 C.3     1  LIG1        0.0535
     15 H          21.4652    7.7122   10.6309 H       1  LIG1        0.0453
     16 BR         21.0081    8.8791    8.5220 Br      1  LIG1       -0.0844
     17 C          22.4170    6.5418    9.2633 C.3     1  LIG1       -0.0369
     18 H          22.6338    5.8707    9.9304 H       1  LIG1        0.0277
     19 H          23.1878    7.1210    9.1630 H       1  LIG1        0.0277
     20 C          22.1335    5.8571    7.9428 C.3     1  LIG1       -0.0466
     21 H          22.8815    5.2825    7.7133 H       1  LIG1        0.0269
     22 H          22.0470    6.5275    7.2468 H       1  LIG1        0.0269
     23 C          20.8597    5.0268    7.9990 C.3     1  LIG1       -0.0079
     24 H          20.6341    4.7365    7.1009 H       1  LIG1        0.0327
     25 H          21.0222    4.2343    8.5339 H       1  LIG1        0.0327
     26 C          18.7788    7.3909   10.3984 C.ar    1  LIG1       -0.0091
     27 C          18.5455    7.4234   11.7675 C.ar    1  LIG1       -0.0554
     28 H          19.0627    6.8978   12.3343 H       1  LIG1        0.0621
     29 C          17.5587    8.2220   12.2948 C.ar    1  LIG1       -0.0614
     30 H          17.4173    8.2295   13.2141 H       1  LIG1        0.0618
     31 C          16.7810    9.0070   11.4879 C.ar    1  LIG1       -0.0617
     32 H          16.1070    9.5356   11.8496 H       1  LIG1        0.0618
     33 C          17.0127    9.0002   10.1340 C.ar    1  LIG1       -0.0614
     34 H          16.4985    9.5401    9.5778 H       1  LIG1        0.0618
     35 C          18.0047    8.1986    9.5839 C.ar    1  LIG1       -0.0554
     36 H          18.1481    8.2046    8.6646 H       1  LIG1        0.0621
@<TRIPOS>BOND
     1     4     3    1
     2     3     2    1
     3    24    23    1
     4    22    20    1
     5    21    20    1
     6    20    23    1
     7    20    17    1
     8    23    25    1
     9    23     1    1
    10     2     1    2
    11    16    14    1
    12     1     5    1
    13    36    35    1
    14    19    17    1
    15    17    14    1
    16    17    18    1
    17    34    33    1
    18    35    33   ar
    19    35    26   ar
    20    14     5    1
    21    14    15    1
    22     5    26    1
    23     5     6    1
    24    33    31   ar
    25     8     7    1
    26    26    27   ar
    27     6     7    1
    28     7     9    1
    29     7    10    1
    30    31    32    1
    31    31    29   ar
    32    27    29   ar
    33    27    28    1
    34    13    10    1
    35    10    11    1
    36    10    12    1
    37    29    30    1
