@<TRIPOS>MOLECULE
Dichlorobis(2,4-dichloro-5-fluorophenyl)methane
 13 13 0 0 0
SMALL
GASTEIGER

@<TRIPOS>ATOM
      1 CL          1.8499    3.9504    3.5363 Cl      1  LIG1       -0.0832
      2 CL          1.0340    7.7978   -0.0505 Cl      1  LIG1       -0.0805
      3 CL          5.1950    2.2772    0.3519 Cl      1  LIG1       -0.1085
      4 F           3.2044    6.4792   -1.5047 F       1  LIG1       -0.2040
      5 C           2.3008    4.6412    2.0146 C.ar    1  LIG1        0.0475
      6 C           1.6122    5.7828    1.6370 C.ar    1  LIG1       -0.0219
      7 C           1.9064    6.3972    0.4471 C.ar    1  LIG1        0.0775
      8 C           2.8913    5.8736   -0.3314 C.ar    1  LIG1        0.1420
      9 C           3.5803    4.7413    0.0179 C.ar    1  LIG1       -0.0186
     10 C           3.3031    4.0931    1.2123 C.ar    1  LIG1       -0.0015
     11 C           4.1014    2.8707    1.6535 C.3     1  LIG1        0.1214
     12 H           0.9490    6.1319    2.1886 H       1  LIG1        0.0648
     13 H           4.2359    4.4049   -0.5509 H       1  LIG1        0.0650
@<TRIPOS>BOND
     1     4     8    1
     2    13     9    1
     3     8     9   ar
     4     8     7   ar
     5     2     7    1
     6     9    10   ar
     7     3    11    1
     8     7     6   ar
     9    10    11    1
    10    10     5   ar
    11     6     5   ar
    12     6    12    1
    13     5     1    1
