@<TRIPOS>MOLECULE
N-(2-Hydroxylbenzoyl)-N'-(picolinoyl)hydrazine
 30 31 0 0 0
SMALL
GASTEIGER

@<TRIPOS>ATOM
      1 C          -0.6309    7.3902   19.8452 C.ar    1  LIG1        0.1268
      2 C          -0.2358    8.4606   19.0682 C.ar    1  LIG1       -0.0311
      3 H           0.3964    9.0668   19.3790 H       1  LIG1        0.0640
      4 C          -0.8026    8.6107   17.8121 C.ar    1  LIG1       -0.0582
      5 H          -0.5644    9.3287   17.2701 H       1  LIG1        0.0619
      6 C          -1.7155    7.6903   17.3830 C.ar    1  LIG1       -0.0436
      7 H          -2.1151    7.7739   16.5472 H       1  LIG1        0.0633
      8 C          -2.0353    6.6300   18.2156 C.ar    1  LIG1        0.0284
      9 H          -2.6408    5.9946   17.9058 H       1  LIG1        0.0830
     10 C          -0.0522    7.2231   21.2205 C.2     1  LIG1        0.2784
     11 C           0.7841    5.3078   23.5024 C.2     1  LIG1        0.2637
     12 C           1.1136    5.0087   24.9377 C.ar    1  LIG1        0.0795
     13 C           0.5340    5.6119   26.0413 C.ar    1  LIG1        0.1290
     14 C           0.8538    5.1729   27.3286 C.ar    1  LIG1       -0.0194
     15 H           0.4472    5.5636   28.0689 H       1  LIG1        0.0654
     16 C           1.7658    4.1679   27.5001 C.ar    1  LIG1       -0.0583
     17 H           1.9799    3.8869   28.3606 H       1  LIG1        0.0619
     18 C           2.3699    3.5657   26.4242 C.ar    1  LIG1       -0.0608
     19 H           2.9837    2.8790   26.5533 H       1  LIG1        0.0618
     20 C           2.0575    3.9917   25.1484 C.ar    1  LIG1       -0.0460
     21 H           2.4788    3.5989   24.4195 H       1  LIG1        0.0626
     22 N          -1.5207    6.4688   19.4386 N.ar    1  LIG1       -0.2503
     23 N          -0.7158    6.3712   22.0072 N.am    1  LIG1       -0.2289
     24 H          -1.4187    5.9734   21.7123 H       1  LIG1        0.1732
     25 N          -0.2723    6.1285   23.2985 N.am    1  LIG1       -0.2300
     26 H          -0.6674    6.4980   23.9683 H       1  LIG1        0.1731
     27 O           0.9410    7.8594   21.5734 O.2     1  LIG1       -0.2670
     28 O           1.4099    4.8181   22.5706 O.2     1  LIG1       -0.2685
     29 O          -0.3397    6.6481   25.8820 O.3     1  LIG1       -0.5060
     30 H          -0.5907    6.9089   26.6181 H       1  LIG1        0.2922
@<TRIPOS>BOND
     1     7     6    1
     2     5     4    1
     3     6     4   ar
     4     6     8   ar
     5     4     2   ar
     6     9     8    1
     7     8    22   ar
     8     2     3    1
     9     2     1   ar
    10    22     1   ar
    11     1    10    1
    12    10    27    2
    13    10    23   am
    14    24    23    1
    15    23    25    1
    16    28    11    2
    17    25    11   am
    18    25    26    1
    19    11    12    1
    20    21    20    1
    21    12    20   ar
    22    12    13   ar
    23    20    18   ar
    24    29    13    1
    25    29    30    1
    26    13    14   ar
    27    18    19    1
    28    18    16   ar
    29    14    16   ar
    30    14    15    1
    31    16    17    1
