@<TRIPOS>MOLECULE
2,2'-(p-Phenylenedimethylenedithio)bis(4,5-dihydro-1,3-thiazine)
 21 21 0 0 0
SMALL
GASTEIGER

@<TRIPOS>ATOM
      1 S           5.0502    2.3980    3.4449 S.3     1  LIG1       -0.0995
      2 S           3.2847    3.9591    1.8599 S.3     1  LIG1       -0.0951
      3 N           2.3214    2.3438    3.7512 N.2     1  LIG1       -0.2705
      4 C           4.9261    1.1389    4.7232 C.3     1  LIG1        0.0018
      5 H           4.8523    0.2651    4.3080 H       1  LIG1        0.0381
      6 H           5.7318    1.1472    5.2634 H       1  LIG1        0.0381
      7 C           3.7446    1.3762    5.5929 C.3     1  LIG1       -0.0239
      8 H           3.8480    2.2345    6.0331 H       1  LIG1        0.0291
      9 H           3.7188    0.6922    6.2806 H       1  LIG1        0.0291
     10 C           2.4490    1.3653    4.8493 C.3     1  LIG1        0.0422
     11 H           2.3165    0.4771    4.4817 H       1  LIG1        0.0509
     12 H           1.7337    1.5252    5.4835 H       1  LIG1        0.0509
     13 C           3.3448    2.7642    3.1683 C.2     1  LIG1        0.1255
     14 C           1.5125    4.3333    1.7513 C.3     1  LIG1        0.0218
     15 H           1.1300    4.2853    2.6412 H       1  LIG1        0.0426
     16 H           1.4071    5.2448    1.4360 H       1  LIG1        0.0426
     17 C           0.7390    3.4219    0.8471 C.2     1  LIG1       -0.0551
     18 C          -0.1722    2.5141    1.3599 C.2     1  LIG1       -0.0614
     19 H          -0.2950    2.4625    2.2795 H       1  LIG1        0.0618
     20 C           0.9001    3.4745   -0.5318 C.3     1  LIG1       -0.0046
     21 H           1.5050    4.0764   -0.9018 H       1  LIG1        0.0358
@<TRIPOS>BOND
     1    21    20    1
     2    20    17    1
     3    17    18    2
     4    17    14    1
     5    18    19    1
     6    16    14    1
     7    14     2    1
     8    14    15    1
     9     2    13    1
    10    13     1    1
    11    13     3    2
    12     1     4    1
    13     3    10    1
    14     5     4    1
    15    11    10    1
    16     4     6    1
    17     4     7    1
    18    10    12    1
    19    10     7    1
    20     7     8    1
    21     7     9    1
