@<TRIPOS>MOLECULE
N-Hexanoyl-N'-(6-methyl-2-pyridyl)thiourea
 74 74 0 0 0
SMALL
GASTEIGER

@<TRIPOS>ATOM
      1 S           8.0156    2.9130    6.4340 S.2     1  LIG1       -0.0181
      2 S           9.8515    7.6193    4.7566 S.2     2  LIG2       -0.0181
      3 O           6.1526    4.1733   10.3651 O.2     1  LIG1       -0.2754
      4 O           6.4951    7.4015    7.7809 O.2     2  LIG2       -0.2754
      5 N           6.2518    3.1361    8.3554 N.am    1  LIG1       -0.2676
      6 H           5.8000    2.6226    7.8352 H       1  LIG1        0.1565
      7 N           8.1249    4.3930    8.6612 N.am    1  LIG1       -0.2815
      8 H           7.6831    4.6102    9.3661 H       1  LIG1        0.1552
      9 N           9.6381    5.6884    9.6867 N.ar    1  LIG1       -0.2371
     10 N           8.5230    8.0108    6.9690 N.am    2  LIG2       -0.2676
     11 H           9.2198    8.4803    7.1548 H       2  LIG2        0.1565
     12 N           7.4600    6.6385    5.4953 N.am    2  LIG2       -0.2815
     13 H           6.8788    6.6599    6.1289 H       2  LIG2        0.1552
     14 N           5.8277    5.4087    4.5767 N.ar    2  LIG2       -0.2371
     15 C           0.3935    2.1369   12.8706 C.3     1  LIG1       -0.0653
     16 H          -0.1901    2.5945   12.2617 H       1  LIG1        0.0230
     17 H           0.1037    2.2967   13.7717 H       1  LIG1        0.0230
     18 H           0.3714    1.1942   12.6896 H       1  LIG1        0.0230
     19 C           1.8025    2.6497   12.6972 C.3     1  LIG1       -0.0559
     20 H           1.8140    3.6016   12.8820 H       1  LIG1        0.0263
     21 H           2.3756    2.2160   13.3491 H       1  LIG1        0.0263
     22 C           2.3683    2.4170   11.3268 C.3     1  LIG1       -0.0529
     23 H           1.7809    2.8243   10.6719 H       1  LIG1        0.0265
     24 H           2.3885    1.4636   11.1535 H       1  LIG1        0.0265
     25 C           3.7635    2.9767   11.1478 C.3     1  LIG1       -0.0448
     26 H           4.3618    2.5330   11.7684 H       1  LIG1        0.0270
     27 H           3.7545    3.9204   11.3694 H       1  LIG1        0.0270
     28 C           4.3012    2.8076    9.7428 C.3     1  LIG1        0.0243
     29 H           4.3683    1.8612    9.5427 H       1  LIG1        0.0358
     30 H           3.6738    3.1989    9.1149 H       1  LIG1        0.0358
     31 C           5.6422    3.4415    9.5490 C.2     1  LIG1        0.2185
     32 C           7.4844    3.5325    7.8671 C.2     1  LIG1        0.1419
     33 C           9.3878    5.0155    8.5663 C.ar    1  LIG1        0.1244
     34 C          10.2410    4.9580    7.4857 C.ar    1  LIG1       -0.0215
     35 H          10.0273    4.4785    6.7177 H       1  LIG1        0.0652
     36 C          11.4295    5.6498    7.6038 C.ar    1  LIG1       -0.0568
     37 H          12.0393    5.6460    6.9022 H       1  LIG1        0.0619
     38 C          11.7136    6.3380    8.7432 C.ar    1  LIG1       -0.0405
     39 H          12.5164    6.8006    8.8244 H       1  LIG1        0.0635
     40 C          10.8065    6.3430    9.7705 C.ar    1  LIG1        0.0403
     41 C          11.0537    7.0747   11.0593 C.3     1  LIG1       -0.0223
     42 H          10.5667    6.6486   11.7684 H       1  LIG1        0.0292
     43 H          10.7603    7.9847   10.9716 H       1  LIG1        0.0292
     44 H          11.9920    7.0592   11.2608 H       1  LIG1        0.0292
     45 C           6.4443   10.3316   13.7004 C.3     2  LIG2       -0.0653
     46 H           7.1944    9.9358   14.1499 H       2  LIG2        0.0230
     47 H           5.7008   10.3852   14.3056 H       2  LIG2        0.0230
     48 H           6.6778   11.2137   13.4027 H       2  LIG2        0.0230
     49 C           6.0680    9.4914   12.5213 C.3     2  LIG2       -0.0559
     50 H           5.2503    9.8397   12.1322 H       2  LIG2        0.0263
     51 H           5.8921    8.5859   12.8205 H       2  LIG2        0.0263
     52 C           7.1466    9.4610   11.4610 C.3     2  LIG2       -0.0529
     53 H           7.3395   10.3712   11.1888 H       2  LIG2        0.0265
     54 H           7.9551    9.0949   11.8522 H       2  LIG2        0.0265
     55 C           6.7973    8.6578   10.2374 C.3     2  LIG2       -0.0448
     56 H           5.9511    8.9696    9.8816 H       2  LIG2        0.0270
     57 H           6.6922    7.7256   10.4861 H       2  LIG2        0.0270
     58 C           7.8641    8.7701    9.1621 C.3     2  LIG2        0.0243
     59 H           7.9732    9.7037    8.9238 H       2  LIG2        0.0358
     60 H           8.7085    8.4567    9.5231 H       2  LIG2        0.0358
     61 C           7.5468    7.9960    7.9405 C.2     2  LIG2        0.2185
     62 C           8.5445    7.3819    5.7407 C.2     2  LIG2        0.1419
     63 C           7.0790    5.8350    4.4196 C.ar    2  LIG2        0.1244
     64 C           7.8679    5.5087    3.3285 C.ar    2  LIG2       -0.0215
     65 H           8.7429    5.8150    3.2503 H       2  LIG2        0.0652
     66 C           7.3003    4.7154    2.3720 C.ar    2  LIG2       -0.0568
     67 H           7.7905    4.4796    1.6173 H       2  LIG2        0.0619
     68 C           6.0236    4.2663    2.5128 C.ar    2  LIG2       -0.0405
     69 H           5.6389    3.7284    1.8580 H       2  LIG2        0.0635
     70 C           5.3062    4.6180    3.6387 C.ar    2  LIG2        0.0403
     71 C           3.9065    4.1448    3.8901 C.3     2  LIG2       -0.0223
     72 H           3.8716    3.6805    4.7288 H       2  LIG2        0.0292
     73 H           3.6382    3.5514    3.1848 H       2  LIG2        0.0292
     74 H           3.3138    4.8993    3.9176 H       2  LIG2        0.0292
@<TRIPOS>BOND
     1    67    66    1
     2    69    68    1
     3    66    68   ar
     4    66    64   ar
     5    68    70   ar
     6    73    71    1
     7    65    64    1
     8    64    63   ar
     9    70    71    1
    10    70    14   ar
    11    71    74    1
    12    71    72    1
    13    63    14   ar
    14    63    12    1
    15     2    62    2
    16    12    62    1
    17    12    13    1
    18    62    10    1
    19     1    32    2
    20    35    34    1
    21    37    36    1
    22    10    11    1
    23    10    61   am
    24    34    36   ar
    25    34    33   ar
    26    36    38   ar
    27     4    61    2
    28     6     5    1
    29    32     5    1
    30    32     7    1
    31    61    58    1
    32     5    31   am
    33    33     7    1
    34    33     9   ar
    35     7     8    1
    36    38    39    1
    37    38    40   ar
    38    59    58    1
    39    30    28    1
    40    58    60    1
    41    58    55    1
    42    29    28    1
    43    31    28    1
    44    31     3    2
    45     9    40   ar
    46    28    25    1
    47    40    41    1
    48    56    55    1
    49    55    57    1
    50    55    52    1
    51    23    22    1
    52    43    41    1
    53    41    44    1
    54    41    42    1
    55    25    22    1
    56    25    27    1
    57    25    26    1
    58    24    22    1
    59    53    52    1
    60    22    19    1
    61    52    54    1
    62    52    49    1
    63    50    49    1
    64    16    15    1
    65    49    51    1
    66    49    45    1
    67    18    15    1
    68    19    15    1
    69    19    20    1
    70    19    21    1
    71    15    17    1
    72    48    45    1
    73    45    46    1
    74    45    47    1
