@<TRIPOS>MOLECULE
5-(2-Chlorophenyl)-3-(4-chlorophenyl)-1-phenyl-2-pyrazoline
 41 44 0 0 0
SMALL
GASTEIGER

@<TRIPOS>ATOM
      1 CL          3.3760    3.6538    3.9149 Cl      1  LIG1       -0.0832
      2 CL         -1.7948   12.3685    7.4000 Cl      1  LIG1       -0.0835
      3 N           2.5659    7.7285    2.4555 N.pl3   1  LIG1       -0.2414
      4 N           1.8199    8.7854    2.9357 N.3     1  LIG1       -0.1279
      5 C           0.5765    5.6804    1.9135 C.ar    1  LIG1       -0.0554
      6 H           0.3490    6.5637    1.7321 H       1  LIG1        0.0621
      7 C          -0.2111    4.6589    1.4035 C.ar    1  LIG1       -0.0614
      8 H          -0.9682    4.8619    0.9037 H       1  LIG1        0.0618
      9 C           0.1259    3.3430    1.6367 C.ar    1  LIG1       -0.0604
     10 H          -0.3953    2.6604    1.2814 H       1  LIG1        0.0618
     11 C           1.2298    3.0408    2.3919 C.ar    1  LIG1       -0.0431
     12 H           1.4640    2.1541    2.5477 H       1  LIG1        0.0632
     13 C           1.9966    4.0742    2.9222 C.ar    1  LIG1        0.0460
     14 C           1.7007    5.4115    2.6919 C.ar    1  LIG1       -0.0072
     15 C           2.5025    6.5411    3.3261 C.3     1  LIG1        0.0694
     16 H           3.4068    6.2328    3.5441 H       1  LIG1        0.0566
     17 C           1.8135    7.1105    4.5866 C.3     1  LIG1       -0.0008
     18 H           1.0599    6.5620    4.8556 H       1  LIG1        0.0310
     19 H           2.4360    7.1844    5.3272 H       1  LIG1        0.0310
     20 C           1.3616    8.4714    4.1082 C.3     1  LIG1        0.1090
     21 C           3.2580    7.8184    1.2502 C.ar    1  LIG1        0.0466
     22 C           3.1326    8.9377    0.4221 C.ar    1  LIG1       -0.0393
     23 H           2.5771    9.6399    0.6720 H       1  LIG1        0.0636
     24 C           3.8347    9.0007   -0.7709 C.ar    1  LIG1       -0.0600
     25 H           3.7498    9.7527   -1.3127 H       1  LIG1        0.0618
     26 C           4.6616    7.9633   -1.1697 C.ar    1  LIG1       -0.0616
     27 H           5.1256    8.0114   -1.9742 H       1  LIG1        0.0618
     28 C           4.7842    6.8588   -0.3558 C.ar    1  LIG1       -0.0600
     29 H           5.3379    6.1586   -0.6175 H       1  LIG1        0.0618
     30 C           4.0986    6.7731    0.8455 C.ar    1  LIG1       -0.0393
     31 H           4.1971    6.0212    1.3834 H       1  LIG1        0.0636
     32 C           0.5502    9.4064    4.8935 C.ar    1  LIG1       -0.0218
     33 C           0.2071    9.1164    6.2172 C.ar    1  LIG1       -0.0553
     34 H           0.4684    8.3054    6.5901 H       1  LIG1        0.0621
     35 C          -0.5198   10.0200    6.9859 C.ar    1  LIG1       -0.0431
     36 H          -0.7472    9.8155    7.8645 H       1  LIG1        0.0632
     37 C          -0.8986   11.2200    6.4298 C.ar    1  LIG1        0.0410
     38 C          -0.5872   11.5417    5.1184 C.ar    1  LIG1       -0.0431
     39 H          -0.8514   12.3556    4.7560 H       1  LIG1        0.0632
     40 C           0.1238   10.6289    4.3577 C.ar    1  LIG1       -0.0553
     41 H           0.3222   10.8315    3.4723 H       1  LIG1        0.0621
@<TRIPOS>BOND
     1    27    26    1
     2    25    24    1
     3    26    24   ar
     4    26    28   ar
     5    24    22   ar
     6    29    28    1
     7    28    30   ar
     8    22    23    1
     9    22    21   ar
    10    30    21   ar
    11    30    31    1
    12     8     7    1
    13    21     3    1
    14    10     9    1
    15     7     9   ar
    16     7     5   ar
    17     9    11   ar
    18     6     5    1
    19     5    14   ar
    20    11    12    1
    21    11    13   ar
    22     3     4    1
    23     3    15    1
    24    14    13   ar
    25    14    15    1
    26    13     1    1
    27     4    20    1
    28    15    16    1
    29    15    17    1
    30    41    40    1
    31    20    17    1
    32    20    32    1
    33    40    32   ar
    34    40    38   ar
    35    17    18    1
    36    17    19    1
    37    39    38    1
    38    32    33   ar
    39    38    37   ar
    40    33    34    1
    41    33    35   ar
    42    37    35   ar
    43    37     2    1
    44    35    36    1
