@<TRIPOS>MOLECULE
3-Methylsulfanyl-2,5-diphenyl-1-benzofuran
 39 42 0 0 0
SMALL
GASTEIGER

@<TRIPOS>ATOM
      1 S           4.1927    2.0186    5.8218 S.3     1  LIG1       -0.1243
      2 O           3.6551   -0.7082    2.9756 O.2     1  LIG1       -0.4537
      3 C           6.0682    2.8042    0.4413 C.ar    1  LIG1       -0.0617
      4 H           6.4906    3.2964   -0.2247 H       1  LIG1        0.0618
      5 C           5.4739    3.4513    1.5190 C.ar    1  LIG1       -0.0611
      6 H           5.5058    4.3784    1.5752 H       1  LIG1        0.0618
      7 C           4.8363    2.7274    2.5060 C.ar    1  LIG1       -0.0510
      8 H           4.4395    3.1712    3.2208 H       1  LIG1        0.0625
      9 C           4.7830    1.3297    2.4387 C.ar    1  LIG1        0.0184
     10 C           5.3942    0.6905    1.3491 C.ar    1  LIG1       -0.0510
     11 H           5.3703   -0.2367    1.2881 H       1  LIG1        0.0625
     12 C           6.0284    1.4218    0.3675 C.ar    1  LIG1       -0.0611
     13 H           6.4317    0.9840   -0.3473 H       1  LIG1        0.0618
     14 C           4.1042    0.5174    3.4457 C.ar    1  LIG1        0.1496
     15 C           3.8054    0.6628    4.7687 C.ar    1  LIG1        0.0612
     16 C           3.1289   -0.5467    5.1807 C.ar    1  LIG1        0.0348
     17 C           2.5588   -1.0055    6.3602 C.ar    1  LIG1       -0.0422
     18 H           2.5909   -0.4871    7.1312 H       1  LIG1        0.0631
     19 C           1.9349   -2.2571    6.3745 C.ar    1  LIG1       -0.0171
     20 C           1.9136   -3.0348    5.1870 C.ar    1  LIG1       -0.0505
     21 H           1.5017   -3.8689    5.2026 H       1  LIG1        0.0625
     22 C           2.4808   -2.5970    4.0148 C.ar    1  LIG1       -0.0181
     23 H           2.4672   -3.1151    3.2433 H       1  LIG1        0.0655
     24 C           3.0739   -1.3471    4.0384 C.ar    1  LIG1        0.1368
     25 C           1.2649   -2.7540    7.6043 C.ar    1  LIG1       -0.0179
     26 C           1.7932   -2.5000    8.8731 C.ar    1  LIG1       -0.0540
     27 H           2.5915   -2.0307    8.9546 H       1  LIG1        0.0624
     28 C           1.1350   -2.9433   10.0129 C.ar    1  LIG1       -0.0612
     29 H           1.4954   -2.7699   10.8526 H       1  LIG1        0.0618
     30 C          -0.0551   -3.6437    9.9046 C.ar    1  LIG1       -0.0617
     31 H          -0.4974   -3.9340   10.6687 H       1  LIG1        0.0618
     32 C          -0.5833   -3.9078    8.6553 C.ar    1  LIG1       -0.0612
     33 H          -1.3811   -4.3801    8.5797 H       1  LIG1        0.0618
     34 C           0.0688   -3.4718    7.5163 C.ar    1  LIG1       -0.0540
     35 H          -0.2941   -3.6584    6.6807 H       1  LIG1        0.0624
     36 C           5.4819    1.2605    6.8115 C.3     1  LIG1       -0.0133
     37 H           5.1314    0.4831    7.2528 H       1  LIG1        0.0344
     38 H           5.7921    1.8887    7.4683 H       1  LIG1        0.0344
     39 H           6.2127    1.0052    6.2435 H       1  LIG1        0.0344
@<TRIPOS>BOND
     1    13    12    1
     2     4     3    1
     3    12     3   ar
     4    12    10   ar
     5     3     5   ar
     6    11    10    1
     7    10     9   ar
     8     5     6    1
     9     5     7   ar
    10     9     7   ar
    11     9    14    1
    12     7     8    1
    13     2    14   ar
    14     2    24   ar
    15    23    22    1
    16    14    15   ar
    17    22    24   ar
    18    22    20   ar
    19    24    16   ar
    20    15    16   ar
    21    15     1    1
    22    16    17   ar
    23    20    21    1
    24    20    19   ar
    25     1    36    1
    26    39    36    1
    27    17    19   ar
    28    17    18    1
    29    19    25    1
    30    35    34    1
    31    36    37    1
    32    36    38    1
    33    34    25   ar
    34    34    32   ar
    35    25    26   ar
    36    33    32    1
    37    32    30   ar
    38    26    27    1
    39    26    28   ar
    40    30    28   ar
    41    30    31    1
    42    28    29    1
