@<TRIPOS>MOLECULE
Ethyl 4-benzoyl-3,5-diphenylpyrrolidine-2-carboxylate
 55 58 0 0 0
SMALL
GASTEIGER

@<TRIPOS>ATOM
      1 O           1.6226    1.7217    0.1354 O.2     1  LIG1       -0.2917
      2 O           5.2007    4.2542    2.9624 O.2     1  LIG1       -0.2491
      3 O           5.6215    6.0001    1.6510 O.3     1  LIG1       -0.4638
      4 N           2.4544    4.9667    2.6697 N.3     1  LIG1       -0.2961
      5 C           1.0028    2.7648    0.0778 C.2     1  LIG1        0.1687
      6 C          -0.3602    2.7827   -0.5182 C.ar    1  LIG1        0.0178
      7 C          -1.2281    3.8626   -0.3808 C.ar    1  LIG1       -0.0513
      8 H          -0.9751    4.6044    0.1192 H       1  LIG1        0.0624
      9 C          -2.4675    3.8287   -0.9900 C.ar    1  LIG1       -0.0611
     10 H          -3.0515    4.5440   -0.8857 H       1  LIG1        0.0618
     11 C          -2.8403    2.7533   -1.7416 C.ar    1  LIG1       -0.0617
     12 H          -3.6750    2.7453   -2.1521 H       1  LIG1        0.0618
     13 C          -2.0000    1.6906   -1.8955 C.ar    1  LIG1       -0.0611
     14 H          -2.2598    0.9609   -2.4104 H       1  LIG1        0.0618
     15 C          -0.7615    1.7010   -1.2830 C.ar    1  LIG1       -0.0513
     16 H          -0.1924    0.9736   -1.3857 H       1  LIG1        0.0624
     17 C           1.6266    4.0633    0.5558 C.3     1  LIG1        0.0503
     18 H           1.3709    4.7637   -0.0795 H       1  LIG1        0.0406
     19 C           1.1996    4.5515    1.9985 C.3     1  LIG1        0.0440
     20 H           0.6501    5.3543    1.8840 H       1  LIG1        0.0517
     21 C           0.4345    3.6033    2.8855 C.ar    1  LIG1       -0.0298
     22 C          -0.7965    3.9678    3.4103 C.ar    1  LIG1       -0.0571
     23 H          -1.1852    4.7735    3.1537 H       1  LIG1        0.0621
     24 C          -1.4590    3.1415    4.3142 C.ar    1  LIG1       -0.0615
     25 H          -2.2753    3.4066    4.6735 H       1  LIG1        0.0618
     26 C          -0.9132    1.9460    4.6751 C.ar    1  LIG1       -0.0617
     27 H          -1.3599    1.3876    5.2711 H       1  LIG1        0.0618
     28 C           0.2965    1.5762    4.1503 C.ar    1  LIG1       -0.0615
     29 H           0.6722    0.7631    4.3987 H       1  LIG1        0.0618
     30 C           0.9599    2.3842    3.2696 C.ar    1  LIG1       -0.0571
     31 H           1.7778    2.1087    2.9220 H       1  LIG1        0.0621
     32 C           3.4481    5.1438    1.6123 C.3     1  LIG1        0.1139
     33 H           3.3168    6.0139    1.1820 H       1  LIG1        0.0583
     34 C           4.8368    5.0662    2.1670 C.2     1  LIG1        0.3249
     35 C           7.0115    6.0104    2.0760 C.3     1  LIG1        0.0897
     36 H           7.4960    5.2830    1.6538 H       1  LIG1        0.0694
     37 H           7.0670    5.8983    3.0378 H       1  LIG1        0.0694
     38 C           7.6001    7.3164    1.6770 C.3     1  LIG1       -0.0306
     39 H           7.5291    7.4222    0.7251 H       1  LIG1        0.0262
     40 H           8.5242    7.3428    1.9336 H       1  LIG1        0.0262
     41 H           7.1267    8.0277    2.1141 H       1  LIG1        0.0262
     42 C           3.1596    4.0161    0.5975 C.3     1  LIG1        0.0215
     43 H           3.4251    3.1657    1.0049 H       1  LIG1        0.0377
     44 C           3.8694    4.1421   -0.7216 C.ar    1  LIG1       -0.0415
     45 C           4.7158    3.1334   -1.1373 C.ar    1  LIG1       -0.0582
     46 H           4.8270    2.3738   -0.6125 H       1  LIG1        0.0620
     47 C           5.4095    3.2513   -2.3508 C.ar    1  LIG1       -0.0615
     48 H           5.9747    2.5670   -2.6289 H       1  LIG1        0.0618
     49 C           5.2591    4.3658   -3.1272 C.ar    1  LIG1       -0.0617
     50 H           5.7226    4.4451   -3.9302 H       1  LIG1        0.0618
     51 C           4.4158    5.3669   -2.7134 C.ar    1  LIG1       -0.0615
     52 H           4.3096    6.1283   -3.2365 H       1  LIG1        0.0618
     53 C           3.7321    5.2491   -1.5363 C.ar    1  LIG1       -0.0582
     54 H           3.1576    5.9328   -1.2764 H       1  LIG1        0.0620
     55 H           2.7507    4.2496    3.1455 H       1  LIG1        0.1233
@<TRIPOS>BOND
     1    50    49    1
     2    52    51    1
     3    49    51   ar
     4    49    47   ar
     5    51    53   ar
     6    48    47    1
     7    14    13    1
     8    47    45   ar
     9    12    11    1
    10    13    11   ar
    11    13    15   ar
    12    11     9   ar
    13    53    54    1
    14    53    44   ar
    15    16    15    1
    16    15     6   ar
    17    45    44   ar
    18    45    46    1
    19     9    10    1
    20     9     7   ar
    21    44    42    1
    22     6     7   ar
    23     6     5    1
    24     7     8    1
    25    18    17    1
    26     5     1    2
    27     5    17    1
    28    17    42    1
    29    17    19    1
    30    42    43    1
    31    42    32    1
    32    39    38    1
    33    33    32    1
    34    32    34    1
    35    32     4    1
    36     3    35    1
    37     3    34    1
    38    36    35    1
    39    38    40    1
    40    38    35    1
    41    38    41    1
    42    20    19    1
    43    19     4    1
    44    19    21    1
    45    35    37    1
    46    34     2    2
    47     4    55    1
    48    21    30   ar
    49    21    22   ar
    50    31    30    1
    51    23    22    1
    52    30    28   ar
    53    22    24   ar
    54    28    29    1
    55    28    26   ar
    56    24    25    1
    57    24    26   ar
    58    26    27    1
