@<TRIPOS>MOLECULE
4,4'-(Hexafluoroisopropylidene)bis(phthalic anhydride)
 37 40 0 0 0
SMALL
GASTEIGER

@<TRIPOS>ATOM
      1 C          -0.4320    7.0406    5.5626 C.ar    1  LIG1        0.0737
      2 C           0.3206    8.2969    3.7097 C.ar    1  LIG1       -0.0190
      3 C           1.5308    8.4891    4.3779 C.ar    1  LIG1       -0.0563
      4 H           2.2013    8.9794    3.9593 H       1  LIG1        0.0621
      5 C           1.7700    7.9750    5.6417 C.ar    1  LIG1       -0.0467
      6 H           2.5791    8.1151    6.0794 H       1  LIG1        0.0626
      7 C           0.7552    7.2489    6.2171 C.ar    1  LIG1        0.0734
      8 C          -0.6881    7.5386    4.3042 C.ar    1  LIG1       -0.0424
      9 H          -1.4950    7.3767    3.8707 H       1  LIG1        0.0629
     10 C           2.2481   12.6735    2.2769 C.ar    1  LIG1        0.0734
     11 C           1.3244   12.3667    3.2558 C.ar    1  LIG1        0.0737
     12 C           0.6446   11.1692    3.2636 C.ar    1  LIG1       -0.0424
     13 H           0.0342   10.9704    3.9361 H       1  LIG1        0.0629
     14 C           0.8985   10.2641    2.2334 C.ar    1  LIG1       -0.0190
     15 C           1.8091   10.6106    1.2216 C.ar    1  LIG1       -0.0563
     16 H           1.9523   10.0189    0.5181 H       1  LIG1        0.0621
     17 C           2.4995   11.8110    1.2448 C.ar    1  LIG1       -0.0467
     18 H           3.1142   12.0240    0.5808 H       1  LIG1        0.0626
     19 C          -1.2859    6.1999    6.4284 C.2     1  LIG1        0.3475
     20 C           0.6815    6.5710    7.5246 C.2     1  LIG1        0.3475
     21 C           2.8441   13.9828    2.6163 C.2     1  LIG1        0.3475
     22 C           1.3123   13.4573    4.2456 C.2     1  LIG1        0.3475
     23 C           0.1648    8.9122    2.2966 C.3     1  LIG1        0.2095
     24 C          -1.3099    9.1934    1.9319 C.3     1  LIG1        0.4117
     25 C           0.7232    7.8690    1.3102 C.3     1  LIG1        0.4117
     26 F          -2.0137    8.0763    1.7123 F       1  LIG1       -0.1690
     27 F          -1.4003    9.9252    0.8178 F       1  LIG1       -0.1690
     28 F          -1.9384    9.8551    2.8933 F       1  LIG1       -0.1690
     29 F           0.5014    8.1842    0.0319 F       1  LIG1       -0.1690
     30 F           2.0365    7.7242    1.4584 F       1  LIG1       -0.1690
     31 F           0.1813    6.6596    1.5041 F       1  LIG1       -0.1690
     32 O          -2.3782    5.7758    6.2839 O.2     1  LIG1       -0.2444
     33 O          -0.5562    5.9424    7.5998 O.3     1  LIG1       -0.3860
     34 O           1.4640    6.4981    8.4192 O.2     1  LIG1       -0.2444
     35 O           3.6734   14.6369    2.0833 O.2     1  LIG1       -0.2444
     36 O           2.2257   14.4163    3.8080 O.3     1  LIG1       -0.3860
     37 O           0.7042   13.5937    5.2559 O.2     1  LIG1       -0.2444
@<TRIPOS>BOND
     1    29    25    1
     2    16    15    1
     3    18    17    1
     4    27    24    1
     5    15    17   ar
     6    15    14   ar
     7    17    10   ar
     8    25    30    1
     9    25    31    1
    10    25    23    1
    11    26    24    1
    12    24    23    1
    13    24    28    1
    14    35    21    2
    15    14    23    1
    16    14    12   ar
    17    10    21    1
    18    10    11   ar
    19    23     2    1
    20    21    36    1
    21    11    12   ar
    22    11    22    1
    23    12    13    1
    24     2     8   ar
    25     2     3   ar
    26    36    22    1
    27     9     8    1
    28     4     3    1
    29    22    37    2
    30     8     1   ar
    31     3     5   ar
    32     1     7   ar
    33     1    19    1
    34     5     6    1
    35     5     7   ar
    36     7    20    1
    37    32    19    2
    38    19    33    1
    39    20    33    1
    40    20    34    2
