@<TRIPOS>MOLECULE
N-acryloyl-L-alanine
 19 18 0 0 0
SMALL
GASTEIGER

@<TRIPOS>ATOM
      1 OXT         0.8177    5.6073    9.5068 O.2     1  LIG1       -0.2489
      2 O           1.2668    8.4229    8.0867 O.2     1  LIG1       -0.2708
      3 O           1.1392    5.0612    7.3833 O.3     1  LIG1       -0.4793
      4 H           0.3799    4.7594    7.4489 H       1  LIG1        0.2951
      5 N           2.9121    7.4647    9.2411 N.am    1  LIG1       -0.2990
      6 H           3.4773    7.5167    9.8874 H       1  LIG1        0.1498
      7 C           1.7336   10.8417    9.5779 C.2     1  LIG1       -0.0938
      8 H           1.2233   10.9382    8.8068 H       1  LIG1        0.0536
      9 H           1.8617   11.5681   10.1440 H       1  LIG1        0.0536
     10 C           2.2725    9.6871    9.8656 C.2     1  LIG1       -0.0069
     11 H           2.7795    9.6108   10.6419 H       1  LIG1        0.0663
     12 C           2.1051    8.4905    9.0021 C.2     0  ACE0        0.2370
     13 CA          2.8649    6.2595    8.4406 C.3     1  LIG1        0.1176
     14 HA          3.0699    6.4859    7.5089 H       1  LIG1        0.0611
     15 CB          3.8898    5.2568    8.9465 C.3     1  LIG1       -0.0362
     16 HB1         4.7667    5.6454    8.9020 H       1  LIG1        0.0253
     17 HB2         3.8622    4.4672    8.4001 H       1  LIG1        0.0253
     18 HB3         3.6890    5.0234    9.8553 H       1  LIG1        0.0253
     19 C           1.4776    5.6393    8.5073 C.2     1  LIG1        0.3250
@<TRIPOS>BOND
     1     3     4    1
     2     3    19    1
     3    14    13    1
     4     2    12    2
     5    17    15    1
     6    13    19    1
     7    13    15    1
     8    13     5    1
     9    19     1    2
    10     8     7    1
    11    16    15    1
    12    15    18    1
    13    12     5   am
    14    12    10    1
    15     5     6    1
    16     7    10    2
    17     7     9    1
    18    10    11    1
