@<TRIPOS>MOLECULE
(E)-Quinoline-4-carbaldehyde oxime
 21 22 0 0 0
SMALL
GASTEIGER

@<TRIPOS>ATOM
      1 N           4.0252    4.5490    1.1837 N.ar    1  LIG1       -0.2549
      2 N           2.2059   -0.1134    1.2893 N.2     1  LIG1       -0.0950
      3 O           1.3685   -1.2079    1.1469 O.2     1  LIG1       -0.4092
      4 H           1.7382   -1.8753    1.4464 H       1  LIG1        0.3278
      5 C           1.8400    3.4854    0.8914 C.ar    1  LIG1        0.0091
      6 C           2.6692    4.6353    0.9957 C.ar    1  LIG1        0.0716
      7 C           2.4634    2.2048    0.9684 C.ar    1  LIG1        0.0068
      8 C           3.8282    2.1589    1.1242 C.ar    1  LIG1       -0.0343
      9 H           4.2667    1.3400    1.1583 H       1  LIG1        0.0639
     10 C           4.5530    3.3443    1.2305 C.ar    1  LIG1        0.0289
     11 H           5.4737    3.2799    1.3428 H       1  LIG1        0.0830
     12 C           1.6805    0.9665    0.8909 C.2     1  LIG1        0.0741
     13 H           0.8129    0.9747    0.5554 H       1  LIG1        0.0869
     14 C           0.4474    3.6765    0.7272 C.ar    1  LIG1       -0.0520
     15 H          -0.1121    2.9366    0.6530 H       1  LIG1        0.0624
     16 C          -0.0854    4.9321    0.6771 C.ar    1  LIG1       -0.0611
     17 H          -1.0043    5.0403    0.5828 H       1  LIG1        0.0618
     18 C           0.7424    6.0603    0.7666 C.ar    1  LIG1       -0.0597
     19 H           0.3681    6.9109    0.7252 H       1  LIG1        0.0618
     20 C           2.0896    5.9214    0.9150 C.ar    1  LIG1       -0.0357
     21 H           2.6304    6.6763    0.9631 H       1  LIG1        0.0639
@<TRIPOS>BOND
     1    13    12    1
     2    17    16    1
     3    15    14    1
     4    16    14   ar
     5    16    18   ar
     6    19    18    1
     7    14     5   ar
     8    18    20   ar
     9    12     7    1
    10    12     2    2
    11     5     7   ar
    12     5     6   ar
    13    20    21    1
    14    20     6   ar
    15     7     8   ar
    16     6     1   ar
    17     8     9    1
    18     8    10   ar
    19     3     2    1
    20     3     4    1
    21     1    10   ar
    22    10    11    1
