@<TRIPOS>MOLECULE
Ethyl 7-oxo-7H-indeno[2',1':3,4]pyrrolo[2,1-a]quinoline-12-carboxylate
 41 45 0 0 0
SMALL
GASTEIGER

@<TRIPOS>ATOM
      1 O           0.6584    1.0176    2.6265 O.3     1  LIG1       -0.4604
      2 O           1.2153    1.5234    0.5084 O.2     1  LIG1       -0.2433
      3 O           0.9423    7.7614    2.3417 O.2     1  LIG1       -0.2865
      4 N           2.0398    3.4791    3.4550 N.ar    1  LIG1       -0.3022
      5 C          -0.0923   -1.0962    3.3551 C.3     1  LIG1       -0.0306
      6 H          -0.3409   -1.9823    3.0830 H       1  LIG1        0.0262
      7 H          -0.8357   -0.6763    3.7938 H       1  LIG1        0.0262
      8 H           0.6504   -1.1442    3.9604 H       1  LIG1        0.0262
      9 C           0.2842   -0.3204    2.1900 C.3     1  LIG1        0.0900
     10 H          -0.4606   -0.2701    1.5703 H       1  LIG1        0.0695
     11 H           1.0307   -0.7425    1.7369 H       1  LIG1        0.0695
     12 C           1.1613    1.8172    1.6752 C.2     1  LIG1        0.3568
     13 C           1.5266    3.1428    2.1709 C.ar    1  LIG1        0.1404
     14 C           1.1718    4.3202    1.5740 C.ar    1  LIG1        0.0265
     15 C           0.5377    4.8465    0.3518 C.ar    1  LIG1       -0.0041
     16 C           0.1062    4.2431   -0.8105 C.ar    1  LIG1       -0.0533
     17 H           0.1877    3.3252   -0.9326 H       1  LIG1        0.0624
     18 C          -0.4557    5.0501   -1.7944 C.ar    1  LIG1       -0.0611
     19 H          -0.7532    4.6597   -2.5844 H       1  LIG1        0.0618
     20 C          -0.5820    6.4056   -1.6278 C.ar    1  LIG1       -0.0611
     21 H          -0.9599    6.9184   -2.3063 H       1  LIG1        0.0618
     22 C          -0.1543    7.0236   -0.4627 C.ar    1  LIG1       -0.0503
     23 H          -0.2381    7.9425   -0.3488 H       1  LIG1        0.0625
     24 C           0.4005    6.2311    0.5249 C.ar    1  LIG1        0.0301
     25 C           0.9369    6.6374    1.8759 C.2     1  LIG1        0.1964
     26 C           1.3995    5.3829    2.4601 C.ar    1  LIG1        0.0560
     27 C           1.9353    4.8569    3.6292 C.ar    1  LIG1        0.0589
     28 C           2.2959    5.4352    4.8708 C.ar    1  LIG1       -0.0365
     29 H           2.1907    6.3488    5.0081 H       1  LIG1        0.0639
     30 C           2.7912    4.6582    5.8532 C.ar    1  LIG1       -0.0506
     31 H           2.9725    5.0300    6.6862 H       1  LIG1        0.0625
     32 C           3.0415    3.2695    5.6304 C.ar    1  LIG1       -0.0011
     33 C           3.6594    2.4772    6.6011 C.ar    1  LIG1       -0.0526
     34 H           3.8504    2.8445    7.4342 H       1  LIG1        0.0624
     35 C           3.9871    1.1814    6.3566 C.ar    1  LIG1       -0.0611
     36 H           4.3738    0.6614    7.0231 H       1  LIG1        0.0618
     37 C           3.7422    0.6406    5.1040 C.ar    1  LIG1       -0.0598
     38 H           3.9962   -0.2361    4.9266 H       1  LIG1        0.0618
     39 C           3.1291    1.3794    4.1199 C.ar    1  LIG1       -0.0372
     40 H           2.9856    1.0104    3.2784 H       1  LIG1        0.0638
     41 C           2.7254    2.6752    4.3879 C.ar    1  LIG1        0.0545
@<TRIPOS>BOND
     1    19    18    1
     2    21    20    1
     3    18    20   ar
     4    18    16   ar
     5    20    22   ar
     6    17    16    1
     7    16    15   ar
     8    22    23    1
     9    22    24   ar
    10    15    24   ar
    11    15    14    1
    12     2    12    2
    13    24    25    1
    14    10     9    1
    15    14    13   ar
    16    14    26   ar
    17    12    13    1
    18    12     1    1
    19    11     9    1
    20    25     3    2
    21    25    26    1
    22    13     4   ar
    23     9     1    1
    24     9     5    1
    25    26    27   ar
    26     6     5    1
    27    40    39    1
    28     5     7    1
    29     5     8    1
    30     4    27   ar
    31     4    41   ar
    32    27    28   ar
    33    39    41   ar
    34    39    37   ar
    35    41    32   ar
    36    28    29    1
    37    28    30   ar
    38    38    37    1
    39    37    35   ar
    40    32    30   ar
    41    32    33   ar
    42    30    31    1
    43    35    33   ar
    44    35    36    1
    45    33    34    1
