@<TRIPOS>MOLECULE
Ethyl [5-(4-hydroxyphenyl)-3-methylsulfanyl-1-benzofuran-2-yl]acetate
 42 44 0 0 0
SMALL
GASTEIGER

@<TRIPOS>ATOM
      1 S           2.4838    2.1039    6.2020 S.3     1  LIG1       -0.1246
      2 O           9.1676    5.7364   11.9704 O.3     1  LIG1       -0.5068
      3 H           9.0928    6.0874   12.7087 H       1  LIG1        0.2921
      4 O           0.6577    5.4973    7.1130 O.2     1  LIG1       -0.4580
      5 O          -1.4234    2.8325    7.2716 O.2     1  LIG1       -0.2504
      6 O          -2.2193    2.6958    5.2325 O.3     1  LIG1       -0.4646
      7 C           7.9343    5.6813   11.3639 C.ar    1  LIG1        0.1169
      8 C           6.7788    6.1673   11.9769 C.ar    1  LIG1       -0.0196
      9 H           6.8232    6.5299   12.8324 H       1  LIG1        0.0654
     10 C           5.5680    6.1076   11.3082 C.ar    1  LIG1       -0.0506
     11 H           4.8024    6.4321   11.7250 H       1  LIG1        0.0625
     12 C           5.4665    5.5687   10.0146 C.ar    1  LIG1       -0.0176
     13 C           6.6454    5.0687    9.4360 C.ar    1  LIG1       -0.0506
     14 H           6.6102    4.6960    8.5846 H       1  LIG1        0.0625
     15 C           7.8576    5.1168   10.0987 C.ar    1  LIG1       -0.0196
     16 H           8.6230    4.7705    9.6964 H       1  LIG1        0.0654
     17 C           4.1812    5.5640    9.2761 C.ar    1  LIG1       -0.0171
     18 C           3.8502    4.5081    8.4123 C.ar    1  LIG1       -0.0422
     19 H           4.4293    3.7899    8.3022 H       1  LIG1        0.0631
     20 C           2.6435    4.5508    7.7241 C.ar    1  LIG1        0.0344
     21 C           1.7889    5.6355    7.8945 C.ar    1  LIG1        0.1363
     22 C           2.0767    6.7062    8.7328 C.ar    1  LIG1       -0.0181
     23 H           1.4939    7.4244    8.8290 H       1  LIG1        0.0655
     24 C           3.2766    6.6441    9.4149 C.ar    1  LIG1       -0.0505
     25 H           3.5006    7.3406    9.9889 H       1  LIG1        0.0625
     26 C           1.9769    3.6897    6.7595 C.ar    1  LIG1        0.0569
     27 C           0.8208    4.3077    6.4283 C.ar    1  LIG1        0.1303
     28 C          -0.2748    3.9482    5.4872 C.3     1  LIG1        0.1040
     29 H           0.1049    3.4777    4.7281 H       1  LIG1        0.0458
     30 H          -0.6845    4.7627    5.1545 H       1  LIG1        0.0458
     31 C          -1.3377    3.0895    6.1121 C.2     1  LIG1        0.3145
     32 C          -3.3215    1.8006    5.7090 C.3     1  LIG1        0.0897
     33 H          -2.9734    0.9131    5.8894 H       1  LIG1        0.0694
     34 H          -3.7033    2.1515    6.5297 H       1  LIG1        0.0694
     35 C          -4.2813    1.7369    4.7383 C.3     1  LIG1       -0.0306
     36 H          -4.9961    1.1655    5.0308 H       1  LIG1        0.0262
     37 H          -3.8997    1.3829    3.9321 H       1  LIG1        0.0262
     38 H          -4.6253    2.6174    4.5695 H       1  LIG1        0.0262
     39 C           3.9027    2.5359    5.1618 C.3     1  LIG1       -0.0133
     40 H           4.2800    1.7369    4.7863 H       1  LIG1        0.0344
     41 H           4.5648    2.9839    5.6930 H       1  LIG1        0.0344
     42 H           3.6157    3.1167    4.4531 H       1  LIG1        0.0344
@<TRIPOS>BOND
     1    37    35    1
     2    42    39    1
     3    38    35    1
     4    29    28    1
     5    35    36    1
     6    35    32    1
     7    40    39    1
     8    30    28    1
     9    39    41    1
    10    39     1    1
    11     6    32    1
    12     6    31    1
    13    28    31    1
    14    28    27    1
    15    32    33    1
    16    32    34    1
    17    31     5    2
    18     1    26    1
    19    27    26   ar
    20    27     4   ar
    21    26    20   ar
    22     4    21   ar
    23    20    21   ar
    24    20    18   ar
    25    21    22   ar
    26    19    18    1
    27    18    17   ar
    28    14    13    1
    29    22    23    1
    30    22    24   ar
    31    17    24   ar
    32    17    12    1
    33    24    25    1
    34    13    12   ar
    35    13    15   ar
    36    16    15    1
    37    12    10   ar
    38    15     7   ar
    39    10    11    1
    40    10     8   ar
    41     7     2    1
    42     7     8   ar
    43     2     3    1
    44     8     9    1
