@<TRIPOS>MOLECULE
methyl 4-(4-chlorophenyl)-1-methylpiperidine-4-carboxylate
 36 37 0 0 0
SMALL
GASTEIGER

@<TRIPOS>ATOM
      1 CL          3.5639    8.1716    3.4417 Cl      1  LIG1       -0.0835
      2 O           2.1673    9.8910    9.3523 O.2     1  LIG1       -0.2505
      3 O           3.2195    9.1210   11.1574 O.3     1  LIG1       -0.4677
      4 N           3.9500   12.5390   11.0834 N.3     1  LIG1       -0.3045
      5 C           2.8948   10.0386    5.2544 C.ar    1  LIG1       -0.0431
      6 H           2.1300   10.1764    4.7274 H       1  LIG1        0.0632
      7 C           4.9045    8.8354    5.6906 C.ar    1  LIG1       -0.0431
      8 H           5.5429    8.1912    5.4542 H       1  LIG1        0.0632
      9 C           3.9922   13.3791    9.8871 C.3     1  LIG1       -0.0008
     10 H           4.9033   13.7793    9.7656 H       1  LIG1        0.0427
     11 H           3.4331   14.1187   10.0205 H       1  LIG1        0.0427
     12 C           3.5827   12.6080    8.6481 C.3     1  LIG1       -0.0326
     13 H           2.6500   12.3212    8.7432 H       1  LIG1        0.0284
     14 H           3.6600   13.1891    7.8617 H       1  LIG1        0.0284
     15 C           4.4616   10.5391    9.7607 C.3     1  LIG1        0.0759
     16 H           5.1293    9.8397    9.6869 H       1  LIG1        0.0432
     17 C           5.0917    9.5823    6.8354 C.ar    1  LIG1       -0.0569
     18 H           5.8387    9.4328    7.3708 H       1  LIG1        0.0621
     19 C           3.0912   10.7716    6.4064 C.ar    1  LIG1       -0.0569
     20 H           2.4757   11.4352    6.6250 H       1  LIG1        0.0621
     21 C           3.1522    9.8476   10.0305 C.2     1  LIG1        0.3118
     22 C           4.8702   11.4211   10.9349 C.3     1  LIG1        0.0121
     23 H           4.8693   10.8940   11.7823 H       1  LIG1        0.0435
     24 H           5.8015   11.7287   10.7739 H       1  LIG1        0.0435
     25 C           3.8075    9.0796    4.9064 C.ar    1  LIG1        0.0410
     26 C           2.0367    8.3704   11.4964 C.3     1  LIG1        0.0817
     27 H           1.8801    7.8098   10.7942 H       1  LIG1        0.0661
     28 H           2.1882    7.9875   12.3290 H       1  LIG1        0.0661
     29 H           1.2210    8.9885   11.5807 H       1  LIG1        0.0661
     30 C           4.1905   10.5634    7.2193 C.ar    1  LIG1       -0.0433
     31 C           4.4609   11.3751    8.4673 C.3     1  LIG1       -0.0006
     32 H           5.3643   11.6686    8.3957 H       1  LIG1        0.0358
     33 C           4.3233   13.3227   12.2547 C.3     1  LIG1       -0.0127
     34 H           3.7644   14.0462   12.3544 H       1  LIG1        0.0391
     35 H           4.2901   12.7462   13.0647 H       1  LIG1        0.0391
     36 H           5.1892   13.7133   12.1438 H       1  LIG1        0.0391
@<TRIPOS>BOND
     1     1    25    1
     2     6     5    1
     3    25     5   ar
     4    25     7   ar
     5     5    19   ar
     6     8     7    1
     7     7    17   ar
     8    19    20    1
     9    19    30   ar
    10    17    30   ar
    11    17    18    1
    12    30    31    1
    13    14    12    1
    14    32    31    1
    15    31    12    1
    16    31    15    1
    17    12    13    1
    18    12     9    1
    19     2    21    2
    20    16    15    1
    21    15    21    1
    22    15    22    1
    23    10     9    1
    24     9    11    1
    25     9     4    1
    26    21     3    1
    27    24    22    1
    28    27    26    1
    29    22     4    1
    30    22    23    1
    31     4    33    1
    32     3    26    1
    33    26    29    1
    34    26    28    1
    35    36    33    1
    36    33    34    1
    37    33    35    1
