@<TRIPOS>MOLECULE
(+)-10,13-dioxo-2\a,4a\b,6a\a,6b\b,9,9,12a\b-heptamethyl- 1,2,3,4,4a,5,6,6a,6 b,7,8,8a\a,9,10,11,12,12a,12b\a,13,14b\a- eicosahydropicene-2\b-carboxylic acid
 78 82 0 0 0
SMALL
GASTEIGER

@<TRIPOS>ATOM
      1 C           5.0107    1.4966   11.6757 C.3     1  LIG1       -0.0304
      2 H           4.1664    1.9330   11.3984 H       1  LIG1        0.0282
      3 H           5.7597    2.0267   11.3046 H       1  LIG1        0.0282
      4 O           8.4063   -0.6945    1.9839 O.2     1  LIG1       -0.2968
      5 C           5.1011    1.5157   13.2168 C.3     1  LIG1        0.0654
      6 O           5.2171    2.3103    6.7894 O.2     1  LIG1       -0.2923
      7 C           4.0343    0.5598   13.8119 C.3     1  LIG1       -0.0370
      8 H           4.1872    0.4742   14.7868 H       1  LIG1        0.0276
      9 H           3.1376    0.9577   13.6804 H       1  LIG1        0.0276
     10 O           4.3267    3.8088   13.0202 O.2     1  LIG1       -0.2504
     11 C           4.0552   -0.8096   13.1937 C.3     1  LIG1       -0.0461
     12 H           3.3121   -1.3421   13.5736 H       1  LIG1        0.0271
     13 H           4.9024   -1.2575   13.4392 H       1  LIG1        0.0271
     14 C           3.9246   -0.8001   11.6599 C.3     1  LIG1       -0.0254
     15 O           4.9034    3.0187   15.0166 O.3     1  LIG1       -0.4802
     16 H           4.5277    3.7204   15.2836 H       1  LIG1        0.2951
     17 C           4.1945   -2.2046   11.1500 C.3     1  LIG1       -0.0463
     18 H           3.5163   -2.8199   11.5255 H       1  LIG1        0.0271
     19 H           5.0829   -2.4997   11.4721 H       1  LIG1        0.0271
     20 C           4.1628   -2.2995    9.6234 C.3     1  LIG1       -0.0429
     21 H           3.2391   -2.1262    9.3129 H       1  LIG1        0.0274
     22 H           4.4016   -3.2225    9.3562 H       1  LIG1        0.0274
     23 C           5.1245   -1.3085    8.9099 C.3     1  LIG1       -0.0043
     24 C           4.7628   -1.2168    7.3661 C.3     1  LIG1       -0.0127
     25 C           5.0448   -2.5570    6.6673 C.3     1  LIG1       -0.0459
     26 H           5.9169   -2.9026    6.9846 H       1  LIG1        0.0271
     27 H           4.3491   -3.2078    6.9370 H       1  LIG1        0.0271
     28 C           5.0751   -2.4791    5.1475 C.3     1  LIG1       -0.0483
     29 H           4.1823   -2.2155    4.8110 H       1  LIG1        0.0269
     30 H           5.2939   -3.3703    4.7749 H       1  LIG1        0.0269
     31 C           6.1160   -1.4628    4.6862 C.3     1  LIG1       -0.0231
     32 H           6.9425   -1.6856    5.2038 H       1  LIG1        0.0315
     33 C           6.5287   -1.6139    3.1765 C.3     1  LIG1        0.0267
     34 C           7.4881   -0.5036    2.7567 C.2     1  LIG1        0.1392
     35 C           7.2471    0.8864    3.2916 C.3     1  LIG1        0.0069
     36 H           6.5092    1.3039    2.7803 H       1  LIG1        0.0342
     37 H           8.0605    1.4319    3.1486 H       1  LIG1        0.0342
     38 C           6.8926    0.9048    4.7830 C.3     1  LIG1       -0.0400
     39 H           6.6532    1.8294    5.0435 H       1  LIG1        0.0275
     40 H           7.6911    0.6416    5.3049 H       1  LIG1        0.0275
     41 C           5.7276   -0.0334    5.1484 C.3     1  LIG1       -0.0176
     42 C           5.6408   -0.0866    6.7120 C.3     1  LIG1        0.0334
     43 H           6.5742   -0.2870    7.0106 H       1  LIG1        0.0392
     44 C           5.2986    1.2385    7.3821 C.2     1  LIG1        0.1602
     45 C           5.1531    1.1940    8.8410 C.2     1  LIG1       -0.0188
     46 H           5.1165    2.0233    9.3042 H       1  LIG1        0.0652
     47 C           5.0677    0.0758    9.5691 C.2     1  LIG1       -0.0562
     48 C           5.0576    0.1029   11.0836 C.3     1  LIG1       -0.0126
     49 H           5.9218   -0.3030   11.3811 H       1  LIG1        0.0351
     50 C           4.7428    2.9019   13.6978 C.2     1  LIG1        0.3107
     51 C           6.5032    1.1562   13.7281 C.3     1  LIG1       -0.0494
     52 H           7.1516    1.8079   13.3887 H       1  LIG1        0.0240
     53 H           6.7454    0.2600   13.4147 H       1  LIG1        0.0240
     54 H           6.5074    1.1718   14.7088 H       1  LIG1        0.0240
     55 C           2.5371   -0.2992   11.2309 C.3     1  LIG1       -0.0590
     56 H           2.5061   -0.2169   10.2545 H       1  LIG1        0.0235
     57 H           2.3652    0.5757   11.6382 H       1  LIG1        0.0235
     58 H           1.8539   -0.9368   11.5255 H       1  LIG1        0.0235
     59 C           6.5645   -1.8221    9.1367 C.3     1  LIG1       -0.0553
     60 H           7.2033   -1.1767    8.7669 H       1  LIG1        0.0238
     61 H           6.6769   -2.6863    8.6889 H       1  LIG1        0.0238
     62 H           6.7258   -1.9280   10.0971 H       1  LIG1        0.0238
     63 C           3.2674   -0.8815    7.1854 C.3     1  LIG1       -0.0581
     64 H           3.0920   -0.6628    6.2466 H       1  LIG1        0.0236
     65 H           3.0345   -0.1141    7.7487 H       1  LIG1        0.0236
     66 H           2.7251   -1.6551    7.4468 H       1  LIG1        0.0236
     67 C           7.2261   -2.9685    3.0027 C.3     1  LIG1       -0.0528
     68 H           7.5245   -3.0658    2.0740 H       1  LIG1        0.0239
     69 H           6.5996   -3.6891    3.2222 H       1  LIG1        0.0239
     70 H           8.0006   -3.0163    3.6021 H       1  LIG1        0.0239
     71 C           5.3514   -1.5812    2.1910 C.3     1  LIG1       -0.0528
     72 H           4.9449   -0.6896    2.1968 H       1  LIG1        0.0239
     73 H           4.6835   -2.2469    2.4568 H       1  LIG1        0.0239
     74 H           5.6743   -1.7859    1.2883 H       1  LIG1        0.0239
     75 C           4.4316    0.4781    4.4976 C.3     1  LIG1       -0.0586
     76 H           3.8047   -0.2671    4.3878 H       1  LIG1        0.0235
     77 H           4.6368    0.8624    3.6194 H       1  LIG1        0.0235
     78 H           4.0274    1.1649    5.0681 H       1  LIG1        0.0235
@<TRIPOS>BOND
     1    74    71    1
     2     4    34    2
     3    68    67    1
     4    71    72    1
     5    71    73    1
     6    71    33    1
     7    34    33    1
     8    34    35    1
     9    36    35    1
    10    67    33    1
    11    67    69    1
    12    67    70    1
    13    37    35    1
    14    33    31    1
    15    35    38    1
    16    77    75    1
    17    76    75    1
    18    75    78    1
    19    75    41    1
    20    31    28    1
    21    31    41    1
    22    31    32    1
    23    30    28    1
    24    38    39    1
    25    38    41    1
    26    38    40    1
    27    29    28    1
    28    28    25    1
    29    41    42    1
    30    64    63    1
    31    25    27    1
    32    25    26    1
    33    25    24    1
    34    42    43    1
    35    42    24    1
    36    42    44    1
    37     6    44    2
    38    63    24    1
    39    63    66    1
    40    63    65    1
    41    24    23    1
    42    44    45    1
    43    61    59    1
    44    60    59    1
    45    45    46    1
    46    45    47    2
    47    23    59    1
    48    23    47    1
    49    23    20    1
    50    59    62    1
    51    21    20    1
    52    22    20    1
    53    47    48    1
    54    20    17    1
    55    56    55    1
    56    48    49    1
    57    48    14    1
    58    48     1    1
    59    17    19    1
    60    17    18    1
    61    17    14    1
    62    55    58    1
    63    55    57    1
    64    55    14    1
    65     3     1    1
    66     2     1    1
    67    14    11    1
    68     1     5    1
    69    10    50    2
    70    11    13    1
    71    11    12    1
    72    11     7    1
    73     5    50    1
    74     5    51    1
    75     5     7    1
    76    52    51    1
    77    53    51    1
    78     9     7    1
    79    50    15    1
    80    51    54    1
    81     7     8    1
    82    15    16    1
