@<TRIPOS>MOLECULE
(Z)-Ethyl 4-chloro-3-oxo-2-(2-p-tolylhydrazono)butanoate
 34 34 0 0 0
SMALL
GASTEIGER

@<TRIPOS>ATOM
      1 C           3.7429    8.8268    4.6509 C.ar    1  LIG1        0.0483
      2 C           3.3157    7.7951    5.4667 C.ar    1  LIG1       -0.0389
      3 H           3.0516    7.9677    6.3414 H       1  LIG1        0.0637
      4 C           3.2829    6.5073    4.9740 C.ar    1  LIG1       -0.0570
      5 H           2.9997    5.8184    5.5291 H       1  LIG1        0.0621
      6 C           3.6626    6.2125    3.6743 C.ar    1  LIG1       -0.0503
      7 C           4.1090    7.2575    2.8922 C.ar    1  LIG1       -0.0570
      8 H           4.3866    7.0847    2.0221 H       1  LIG1        0.0621
      9 C           4.1559    8.5513    3.3645 C.ar    1  LIG1       -0.0389
     10 H           4.4644    9.2359    2.8173 H       1  LIG1        0.0637
     11 C           3.5599    4.8100    3.1271 C.3     1  LIG1       -0.0397
     12 H           3.4761    4.1881    3.8534 H       1  LIG1        0.0278
     13 H           4.3487    4.6063    2.6205 H       1  LIG1        0.0278
     14 H           2.7886    4.7438    2.5592 H       1  LIG1        0.0278
     15 C           3.3975   11.7385    6.6951 C.2     1  LIG1        0.2086
     16 C           3.7637   12.8553    5.8041 C.2     1  LIG1        0.3628
     17 C           4.0129   15.1659    5.4687 C.3     1  LIG1        0.0900
     18 H           3.4134   15.1628    4.7058 H       1  LIG1        0.0695
     19 H           4.9248   15.0989    5.1456 H       1  LIG1        0.0695
     20 C           3.8346   16.4169    6.2651 C.3     1  LIG1       -0.0306
     21 H           4.0271   17.1784    5.7119 H       1  LIG1        0.0262
     22 H           4.4335   16.4058    7.0151 H       1  LIG1        0.0262
     23 H           2.9293   16.4697    6.5793 H       1  LIG1        0.0262
     24 C           2.9760   11.8928    8.1006 C.2     1  LIG1        0.2042
     25 C           2.5460   10.6050    8.7818 C.3     1  LIG1        0.0873
     26 H           3.3013    9.9969    8.8183 H       1  LIG1        0.0512
     27 H           1.8493   10.1827    8.2550 H       1  LIG1        0.0512
     28 CL          1.9484   10.8846   10.4162 Cl      1  LIG1       -0.1169
     29 N           3.7669   10.1636    5.0811 N.pl3   1  LIG1       -0.2369
     30 N           3.3988   10.4887    6.2910 N.2     1  LIG1       -0.1718
     31 O           3.7063   14.0541    6.3600 O.3     1  LIG1       -0.4603
     32 O           4.0753   12.6828    4.6400 O.2     1  LIG1       -0.2430
     33 O           2.9693   12.9427    8.6960 O.2     1  LIG1       -0.2889
     34 H           4.0101   10.7539    4.5402 H       1  LIG1        0.1744
@<TRIPOS>BOND
     1     8     7    1
     2    14    11    1
     3    13    11    1
     4    10     9    1
     5     7     9   ar
     6     7     6   ar
     7    11     6    1
     8    11    12    1
     9     9     1   ar
    10     6     4   ar
    11    34    29    1
    12    32    16    2
    13     1    29    1
    14     1     2   ar
    15    18    17    1
    16     4     2   ar
    17     4     5    1
    18    29    30    1
    19    19    17    1
    20     2     3    1
    21    17    20    1
    22    17    31    1
    23    21    20    1
    24    16    31    1
    25    16    15    1
    26    20    23    1
    27    20    22    1
    28    30    15    2
    29    15    24    1
    30    24    33    2
    31    24    25    1
    32    27    25    1
    33    25    26    1
    34    25    28    1
