@<TRIPOS>MOLECULE
Cucurbit[6]uril p-phenylenediammonium diiodide decahydrate
 79 79 0 0 0
SMALL
GASTEIGER

@<TRIPOS>ATOM
      1 I           2.7117    7.7539    0.0114 I       1  LIG1        0.0000
      2 N           8.5152    8.5007    6.9239 N.pl3   2  LIG2       -0.4065
      3 H           8.9316    8.8478    7.6423 H       2  LIG2        0.3714
      4 H           8.4777    9.1199    6.2718 H       2  LIG2        0.3714
      5 H           8.9703    7.7826    6.6309 H       2  LIG2        0.3714
      6 C           7.1515    8.0979    7.2957 C.2     2  LIG2        0.2033
      7 C           6.6983    8.3329    8.5621 C.2     2  LIG2       -0.0081
      8 H           7.2611    8.7380    9.1977 H       2  LIG2        0.0640
      9 C           5.4047    7.9696    8.9074 C.3     2  LIG2       -0.0024
     10 H           5.0873    8.1397    9.7752 H       2  LIG2        0.0357
     11 N           5.1749    6.0235    2.8687 N.am    3  LIG3       -0.1723
     12 C           6.2054    6.8611    2.2971 C.3     3  LIG3        0.1682
     13 H           6.4000    6.6138    1.3583 H       3  LIG3        0.0780
     14 N           7.4264    6.9709    3.0919 N.am    3  LIG3       -0.1723
     15 C           4.1321    6.7545    3.3746 C.2     3  LIG3        0.3260
     16 O           3.1075    6.2925    3.8499 O.2     3  LIG3       -0.2507
     17 C           7.7344    8.2716    3.3793 C.2     3  LIG3        0.3260
     18 O           8.7652    8.6672    3.9073 O.2     3  LIG3       -0.2507
     19 N           4.4380    8.0901    3.2572 N.am    3  LIG3       -0.2458
     20 C           5.6024    8.2903    2.4016 C.3     3  LIG3        0.1388
     21 H           5.3486    8.6483    1.5141 H       3  LIG3        0.0750
     22 N           6.6782    9.0551    3.0028 N.am    3  LIG3       -0.2458
     23 C           3.4025    9.0953    3.4479 C.3     3  LIG3        0.0903
     24 H           3.3329    9.6362    2.6340 H       3  LIG3        0.0676
     25 H           2.5432    8.6437    3.5813 H       3  LIG3        0.0676
     26 C           6.6352   10.4706    3.2791 C.3     3  LIG3        0.0903
     27 H           6.2167   10.9240    2.5179 H       3  LIG3        0.0676
     28 H           7.5545   10.8019    3.3536 H       3  LIG3        0.0676
     29 N           3.6502    9.9695    4.5713 N.am    3  LIG3       -0.2471
     30 C           4.5051   11.1363    4.4835 C.3     3  LIG3        0.1358
     31 H           4.2538   11.7187    3.7234 H       3  LIG3        0.0749
     32 N           5.9159   10.8320    4.4827 N.am    3  LIG3       -0.2471
     33 C           2.9389    9.9190    5.7389 C.2     3  LIG3        0.3102
     34 O           2.1175    9.0744    6.0495 O.2     3  LIG3       -0.2522
     35 C           6.5433   11.2340    5.6379 C.2     3  LIG3        0.3102
     36 O           7.7397   11.1383    5.8692 O.2     3  LIG3       -0.2522
     37 N           3.2842   11.0228    6.4838 N.am    3  LIG3       -0.2471
     38 C           4.2859   11.8404    5.8447 C.3     3  LIG3        0.1358
     39 H           3.9858   12.7684    5.7111 H       3  LIG3        0.0749
     40 N           5.6000   11.7688    6.4753 N.am    3  LIG3       -0.2471
     41 C           2.5364   11.4466    7.6448 C.3     3  LIG3        0.0902
     42 H           1.6839   10.9627    7.6622 H       3  LIG3        0.0676
     43 H           2.3355   12.4005    7.5583 H       3  LIG3        0.0676
     44 C           5.9373   12.5594    7.6457 C.3     3  LIG3        0.0902
     45 H           6.9069   12.7019    7.6576 H       3  LIG3        0.0676
     46 H           5.5100   13.4378    7.5629 H       3  LIG3        0.0676
     47 N           3.2199   11.2281    8.9037 N.am    3  LIG3       -0.2471
     48 C           4.2101   12.1189    9.4805 C.3     3  LIG3        0.1357
     49 H           3.9090   13.0622    9.4727 H       3  LIG3        0.0749
     50 N           5.5415   11.9684    8.9101 N.am    3  LIG3       -0.2471
     51 C           2.8792   10.2150    9.7479 C.2     3  LIG3        0.3090
     52 O           2.0951    9.3085    9.4869 O.2     3  LIG3       -0.2523
     53 C           6.4618   11.5981    9.8588 C.2     3  LIG3        0.3090
     54 O           7.6711   11.5635    9.6935 O.2     3  LIG3       -0.2523
     55 N           3.5247   10.3992   10.9373 N.am    3  LIG3       -0.2618
     56 C           4.3789   11.5729   10.9348 C.3     3  LIG3        0.1331
     57 H           4.0986   12.2366   11.6147 H       3  LIG3        0.0748
     58 N           5.7973   11.2841   11.0115 N.am    3  LIG3       -0.2618
     59 C           3.3232    9.5481   12.0913 C.3     3  LIG3        0.0339
     60 H           2.4286    9.1492   12.0425 H       3  LIG3        0.0481
     61 H           3.3619   10.0954   12.9027 H       3  LIG3        0.0481
     62 C           6.4705   10.8695   12.2321 C.3     3  LIG3        0.0339
     63 H           7.3761   11.2425   12.2320 H       3  LIG3        0.0481
     64 H           5.9927   11.2502   12.9990 H       3  LIG3        0.0481
     65 O           1.9723    5.5053    6.4122 O.3     4  HOH4       -0.4105
     66 H           1.3391    5.9830    6.1267 H       0  HOH0        0.2052
     67 H           2.5035    5.4110    5.7814 H       0  HOH0        0.2052
     68 O          11.5585    9.3950   10.8248 O.3     5  HOH5       -0.4105
     69 H          11.4576    8.7040   11.3061 H       0  HOH0        0.2052
     70 H          12.2471    9.1987   10.3894 H       0  HOH0        0.2052
     71 O          10.6688   12.3355    7.7202 O.3     6  HOH6       -0.4105
     72 H          10.4771   11.5378    7.8379 H       0  HOH0        0.2052
     73 H           9.9558   12.7545    7.7921 H       0  HOH0        0.2052
     74 O          11.1133    9.2281    5.5996 O.3     7  HOH7       -0.4105
     75 H          11.0815    8.9204    4.8112 H       0  HOH0        0.2052
     76 H          11.8558    8.9359    5.8517 H       0  HOH0        0.2052
     77 O           0.0382    8.0052    2.3972 O.3     8  HOH8       -0.4105
     78 H           0.7199    7.9310    1.9251 H       0  HOH0        0.2052
     79 H          -0.5718    7.7455    1.8793 H       0  HOH0        0.2052
@<TRIPOS>BOND
     1    13    12    1
     2    21    20    1
     3    79    77    1
     4    78    77    1
     5    12    20    1
     6    12    11    1
     7    12    14    1
     8    20    22    1
     9    20    19    1
    10    27    26    1
    11    24    23    1
    12    11    15   am
    13    22    26    1
    14    22    17   am
    15    14    17   am
    16    19    15   am
    17    19    23    1
    18    26    28    1
    19    26    32    1
    20    15    16    2
    21    17    18    2
    22    23    25    1
    23    23    29    1
    24    31    30    1
    25    32    30    1
    26    32    35   am
    27    30    29    1
    28    30    38    1
    29    29    33   am
    30    75    74    1
    31    74    76    1
    32    35    36    2
    33    35    40   am
    34    39    38    1
    35    33    34    2
    36    33    37   am
    37    67    65    1
    38    38    40    1
    39    38    37    1
    40    66    65    1
    41     4     2    1
    42    40    44    1
    43    37    41    1
    44     5     2    1
    45     2     6    1
    46     2     3    1
    47     6     7    2
    48    43    41    1
    49    46    44    1
    50    41    42    1
    51    41    47    1
    52    44    45    1
    53    44    50    1
    54    71    73    1
    55    71    72    1
    56     7     9    1
    57     7     8    1
    58    47    48    1
    59    47    51   am
    60     9    10    1
    61    50    48    1
    62    50    53   am
    63    49    48    1
    64    48    56    1
    65    52    51    2
    66    54    53    2
    67    51    55   am
    68    53    58   am
    69    70    68    1
    70    68    69    1
    71    56    55    1
    72    56    58    1
    73    56    57    1
    74    55    59    1
    75    58    62    1
    76    60    59    1
    77    59    61    1
    78    63    62    1
    79    62    64    1
