@<TRIPOS>MOLECULE
1-(3-Bromophenyl)-3-(4-dimethylamino)prop-2-en-1-one
 36 37 0 0 0
SMALL
GASTEIGER

@<TRIPOS>ATOM
      1 BR          4.7152    4.2237   17.2157 Br      1  LIG1       -0.0503
      2 O           4.9225    3.7338   11.8792 O.2     1  LIG1       -0.2873
      3 N           5.5304    7.8708    4.4992 N.pl3   1  LIG1       -0.3360
      4 C           4.7878    4.7961   14.4275 C.ar    1  LIG1       -0.0369
      5 H           4.4514    3.9354   14.3237 H       1  LIG1        0.0636
      6 C           5.0307    5.3218   15.6917 C.ar    1  LIG1        0.0186
      7 C           5.5164    6.6008   15.8785 C.ar    1  LIG1       -0.0477
      8 H           5.6714    6.9268   16.7349 H       1  LIG1        0.0629
      9 C           5.7677    7.3888   14.7706 C.ar    1  LIG1       -0.0600
     10 H           6.0999    8.2501   14.8840 H       1  LIG1        0.0618
     11 C           5.5276    6.9038   13.4823 C.ar    1  LIG1       -0.0509
     12 H           5.6756    7.4483   12.7430 H       1  LIG1        0.0625
     13 C           5.0656    5.6029   13.3116 C.ar    1  LIG1        0.0227
     14 C           4.9623    4.9588   11.9562 C.2     1  LIG1        0.1861
     15 C           4.9623    5.8172   10.7576 C.2     1  LIG1       -0.0138
     16 H           4.7124    6.7107   10.8253 H       1  LIG1        0.0656
     17 C           5.3238    5.3067    9.5681 C.2     1  LIG1       -0.0510
     18 H           5.5765    4.4113    9.5647 H       1  LIG1        0.0625
     19 C           5.3657    5.9950    8.2878 C.ar    1  LIG1       -0.0248
     20 C           4.7990    7.2595    8.0770 C.ar    1  LIG1       -0.0528
     21 H           4.3956    7.6996    8.7910 H       1  LIG1        0.0624
     22 C           4.8269    7.8695    6.8330 C.ar    1  LIG1       -0.0401
     23 H           4.4235    8.6993    6.7200 H       1  LIG1        0.0636
     24 C           5.4578    7.2492    5.7365 C.ar    1  LIG1        0.0292
     25 C           6.0301    5.9829    5.9549 C.ar    1  LIG1       -0.0401
     26 H           6.4503    5.5446    5.2493 H       1  LIG1        0.0636
     27 C           5.9799    5.3795    7.1949 C.ar    1  LIG1       -0.0528
     28 H           6.3651    4.5406    7.3069 H       1  LIG1        0.0624
     29 C           5.8849    7.0840    3.3326 C.3     1  LIG1        0.0004
     30 H           6.7280    6.6518    3.4817 H       1  LIG1        0.0428
     31 H           5.9506    7.6595    2.5679 H       1  LIG1        0.0428
     32 H           5.2080    6.4206    3.1749 H       1  LIG1        0.0428
     33 C           4.6915    9.0241    4.2454 C.3     1  LIG1        0.0004
     34 H           4.8548    9.6912    4.9158 H       1  LIG1        0.0428
     35 H           3.7688    8.7613    4.2721 H       1  LIG1        0.0428
     36 H           4.8967    9.3841    3.3783 H       1  LIG1        0.0428
@<TRIPOS>BOND
     1    31    29    1
     2    32    29    1
     3    29    30    1
     4    29     3    1
     5    36    33    1
     6    33    35    1
     7    33     3    1
     8    33    34    1
     9     3    24    1
    10    26    25    1
    11    24    25   ar
    12    24    22   ar
    13    25    27   ar
    14    23    22    1
    15    22    20   ar
    16    27    28    1
    17    27    19   ar
    18    20    19   ar
    19    20    21    1
    20    19    17    1
    21    18    17    1
    22    17    15    2
    23    15    16    1
    24    15    14    1
    25     2    14    2
    26    14    13    1
    27    12    11    1
    28    13    11   ar
    29    13     4   ar
    30    11     9   ar
    31     5     4    1
    32     4     6   ar
    33     9    10    1
    34     9     7   ar
    35     6     7   ar
    36     6     1    1
    37     7     8    1
