@<TRIPOS>MOLECULE
1-acenaphthenol
 23 25 0 0 0
SMALL
GASTEIGER

@<TRIPOS>ATOM
      1 O          -1.3358    3.4706    3.6444 O.3     1  LIG1       -0.3868
      2 C           1.7142    4.6450    2.6933 C.ar    1  LIG1       -0.0090
      3 C           0.9751    4.1611    3.7778 C.ar    1  LIG1       -0.0109
      4 C           1.2320    4.6648    5.0201 C.ar    1  LIG1       -0.0555
      5 H           0.7592    4.3629    5.7617 H       1  LIG1        0.0621
      6 C           2.2373    5.6611    5.1567 C.ar    1  LIG1       -0.0608
      7 H           2.4082    6.0104    6.0020 H       1  LIG1        0.0618
      8 C           2.9600    6.1248    4.0990 C.ar    1  LIG1       -0.0540
      9 H           3.6127    6.7739    4.2321 H       1  LIG1        0.0624
     10 C           2.7187    5.6187    2.7880 C.ar    1  LIG1       -0.0173
     11 C           3.3623    5.9887    1.5788 C.ar    1  LIG1       -0.0540
     12 H           4.0343    6.6324    1.5841 H       1  LIG1        0.0624
     13 C           2.9907    5.3953    0.4068 C.ar    1  LIG1       -0.0609
     14 H           3.4253    5.6468   -0.3756 H       1  LIG1        0.0618
     15 C           1.9775    4.4181    0.3291 C.ar    1  LIG1       -0.0579
     16 H           1.7527    4.0368   -0.4889 H       1  LIG1        0.0620
     17 C           1.3331    4.0408    1.4677 C.ar    1  LIG1       -0.0366
     18 C           0.2303    3.0533    1.7497 C.3     1  LIG1        0.0032
     19 C           0.0053    3.1095    3.2922 C.3     1  LIG1        0.0847
     20 H           0.2004    2.2246    3.6900 H       1  LIG1        0.0647
     21 H           0.4883    2.1309    1.4517 H       1  LIG1        0.0342
     22 H          -0.6580    3.2851    1.3151 H       1  LIG1        0.0342
     23 H          -1.7649    2.7919    3.5097 H       1  LIG1        0.2102
@<TRIPOS>BOND
     1    16    15    1
     2    14    13    1
     3    15    13   ar
     4    15    17   ar
     5    13    11   ar
     6    22    18    1
     7    21    18    1
     8    17    18    1
     9    17     2   ar
    10    11    12    1
    11    11    10   ar
    12    18    19    1
    13     2    10   ar
    14     2     3   ar
    15    10     8   ar
    16    19     1    1
    17    19    20    1
    18    19     3    1
    19    23     1    1
    20     3     4   ar
    21     8     9    1
    22     8     6   ar
    23     4     6   ar
    24     4     5    1
    25     6     7    1
