@<TRIPOS>MOLECULE
N-[(2,4-Dichlorophenoxy)acetyl]-N'-(dimethoxythiophosphinoyl)hydrazine
 33 33 0 0 0
SMALL
GASTEIGER

@<TRIPOS>ATOM
      1 C           6.4825    3.7395    7.8775 C.ar    1  LIG1        0.0839
      2 C           7.1081    2.7863    8.6366 C.ar    1  LIG1       -0.0215
      3 H           7.7753    3.0206    9.2403 H       1  LIG1        0.0648
      4 C           6.7236    1.4718    8.4826 C.ar    1  LIG1        0.0426
      5 C           5.7502    1.1140    7.5874 C.ar    1  LIG1       -0.0398
      6 H           5.5216    0.2191    7.4819 H       1  LIG1        0.0633
      7 C           5.1093    2.0791    6.8454 C.ar    1  LIG1       -0.0171
      8 H           4.4349    1.8414    6.2510 H       1  LIG1        0.0655
      9 C           5.4751    3.4020    6.9874 C.ar    1  LIG1        0.1395
     10 C           3.8723    4.1845    5.3852 C.3     1  LIG1        0.1665
     11 H           3.0851    3.8622    5.8528 H       1  LIG1        0.0795
     12 H           4.1522    3.5036    4.7529 H       1  LIG1        0.0795
     13 C           3.5522    5.4643    4.6574 C.2     1  LIG1        0.2667
     14 C           5.1744    6.7347    1.4636 C.3     1  LIG1        0.0870
     15 H           4.2649    6.5436    1.7050 H       1  LIG1        0.0569
     16 H           5.5626    5.9642    1.0430 H       1  LIG1        0.0569
     17 H           5.1947    7.4766    0.8551 H       1  LIG1        0.0569
     18 C           7.9158    8.6701    4.4788 C.3     1  LIG1        0.0870
     19 H           8.4283    8.0128    4.0030 H       1  LIG1        0.0569
     20 H           8.3220    8.8367    5.3338 H       1  LIG1        0.0569
     21 H           7.8907    9.4846    3.9719 H       1  LIG1        0.0569
     22 CL          6.9484    5.4039    8.0342 Cl      1  LIG1       -0.0797
     23 CL          7.4808    0.2548    9.4677 Cl      1  LIG1       -0.0835
     24 N           4.2445    6.5360    5.0641 N.am    1  LIG1       -0.2121
     25 H           4.8376    6.4962    5.6752 H       1  LIG1        0.1725
     26 N           4.1663    7.7438    4.3802 N.3     1  LIG1       -0.0446
     27 H           3.5560    8.2894    4.6201 H       1  LIG1        0.1972
     28 O           4.9141    4.4441    6.3115 O.3     1  LIG1       -0.4813
     29 O           2.7277    5.4879    3.7628 O.2     1  LIG1       -0.2707
     30 O           5.9294    7.0672    2.6526 O.3     1  LIG1       -0.1774
     31 O           6.6005    8.1938    4.6689 O.3     1  LIG1       -0.1774
     32 P           5.4834    8.2679    3.5615 P.3     1  LIG1        0.4464
     33 S           5.1621    9.9489    2.7080 S.3     1  LIG1        0.2217
@<TRIPOS>BOND
     1    17    14    1
     2    16    14    1
     3    14    15    1
     4    14    30    1
     5    30    32    1
     6    33    32    1
     7    32    26    1
     8    32    31    1
     9    29    13    2
    10    21    18    1
    11    19    18    1
    12    26    27    1
    13    26    24    1
    14    18    31    1
    15    18    20    1
    16    13    24   am
    17    13    10    1
    18    12    10    1
    19    24    25    1
    20    10    11    1
    21    10    28    1
    22     8     7    1
    23    28     9    1
    24     7     9   ar
    25     7     5   ar
    26     9     1   ar
    27     6     5    1
    28     5     4   ar
    29     1    22    1
    30     1     2   ar
    31     4     2   ar
    32     4    23    1
    33     2     3    1
