@<TRIPOS>MOLECULE
N,N'-Bis(4-pyridylmethylene)benzene-1,4-diamine
 36 36 0 0 0
SMALL
GASTEIGER

@<TRIPOS>ATOM
      1 N           3.6076    6.1892    7.9930 N.2     1  LIG1       -0.2590
      2 C           3.3512    6.1089    9.3816 C.2     1  LIG1        0.0457
      3 C           3.8972    5.1504    7.3545 C.2     1  LIG1        0.0351
      4 H           3.9428    4.3436    7.8144 H       1  LIG1        0.0835
      5 C           3.9957    6.2876    5.1352 C.ar    1  LIG1       -0.0350
      6 H           3.6736    7.0747    5.5111 H       1  LIG1        0.0639
      7 C           2.5008    5.1593    9.9454 C.3     1  LIG1        0.0190
      8 H           2.0951    4.5184    9.4070 H       1  LIG1        0.0377
      9 C           3.9209    7.0639   10.2032 C.2     1  LIG1       -0.0384
     10 H           4.4771    7.7108    9.8317 H       1  LIG1        0.0636
     11 C           4.1658    5.1518    5.9135 C.ar    1  LIG1       -0.0041
     12 N           4.7751    5.1385    3.1914 N.ar    1  LIG1       -0.2632
     13 C           4.6315    4.0086    5.2902 C.ar    1  LIG1       -0.0350
     14 H           4.7461    3.2202    5.7702 H       1  LIG1        0.0639
     15 C           4.9245    4.0608    3.9420 C.ar    1  LIG1        0.0282
     16 H           5.2466    3.2886    3.5368 H       1  LIG1        0.0830
     17 C           4.3085    6.2303    3.8063 C.ar    1  LIG1        0.0282
     18 H           4.1881    6.9989    3.2970 H       1  LIG1        0.0830
     19 C           4.0618    1.3150    1.6040 C.ar    2  LIG2       -0.0041
     20 N           2.9671    0.6214    3.6234 N.2     2  LIG2       -0.2590
     21 C           1.8503    0.7198    4.4949 C.2     2  LIG2        0.0457
     22 C           3.0094    1.3911    2.6330 C.2     2  LIG2        0.0351
     23 H           2.3473    2.0380    2.5442 H       2  LIG2        0.0835
     24 N           5.9782    1.1579   -0.4294 N.ar    2  LIG2       -0.2632
     25 C           4.9560    0.2745    1.5438 C.ar    2  LIG2       -0.0350
     26 H           4.9366   -0.3973    2.1861 H       2  LIG2        0.0639
     27 C           5.1257    2.1767   -0.3515 C.ar    2  LIG2        0.0282
     28 H           5.1775    2.8465   -0.9947 H       2  LIG2        0.0830
     29 C           2.0686    0.7216    5.8581 C.2     2  LIG2       -0.0384
     30 H           2.9367    0.6736    6.1885 H       2  LIG2        0.0636
     31 C           0.5453    0.7606    4.0207 C.3     2  LIG2        0.0190
     32 H           0.3875    0.7384    3.1045 H       2  LIG2        0.0377
     33 C           4.1685    2.2875    0.6355 C.ar    2  LIG2       -0.0350
     34 H           3.5954    3.0202    0.6473 H       2  LIG2        0.0639
     35 C           5.8759    0.2358    0.5323 C.ar    2  LIG2        0.0282
     36 H           6.4688   -0.4806    0.5129 H       2  LIG2        0.0830
@<TRIPOS>BOND
     1    28    27    1
     2    24    27   ar
     3    24    35   ar
     4    27    33   ar
     5    36    35    1
     6    35    25   ar
     7    33    34    1
     8    33    19   ar
     9    25    19   ar
    10    25    26    1
    11    19    22    1
    12    23    22    1
    13    22    20    2
    14    32    31    1
    15    12    17   ar
    16    12    15   ar
    17    18    17    1
    18    16    15    1
    19    20    21    1
    20    17     5   ar
    21    15    13   ar
    22    31    21    1
    23    21    29    2
    24     5     6    1
    25     5    11   ar
    26    13    14    1
    27    13    11   ar
    28    29    30    1
    29    11     3    1
    30     3     4    1
    31     3     1    2
    32     1     2    1
    33     2     7    1
    34     2     9    2
    35     8     7    1
    36    10     9    1
