@<TRIPOS>MOLECULE
2'-(4-Chloro-2-hydroxyphenyl-1-ethylidene)benzenesulfonohydrazide
 34 35 0 0 0
SMALL
GASTEIGER

@<TRIPOS>ATOM
      1 S           4.2287    2.2583   13.2686 S.O2    1  LIG1        0.0865
      2 CL         -1.7451    8.8154   12.9967 Cl      1  LIG1       -0.0835
      3 O           0.9978    4.1993   15.3649 O.3     1  LIG1       -0.5061
      4 O           5.0448    1.6376   12.2521 O.2     1  LIG1       -0.1487
      5 O           3.4160    1.4342   14.1056 O.2     1  LIG1       -0.1487
      6 N           3.2559    3.2556   12.4046 N.pl3   1  LIG1       -0.1365
      7 N           2.3282    3.9747   13.1572 N.2     1  LIG1       -0.1705
      8 C           5.2549    3.2516   14.3013 C.ar    1  LIG1        0.1099
      9 C           5.5880    2.7714   15.5595 C.ar    1  LIG1       -0.0350
     10 H           5.2319    1.9483   15.8712 H       1  LIG1        0.0637
     11 C           6.4515    3.5146   16.3552 C.ar    1  LIG1       -0.0599
     12 H           6.6988    3.1941   17.2141 H       1  LIG1        0.0618
     13 C           6.9518    4.7243   15.8954 C.ar    1  LIG1       -0.0616
     14 H           7.5323    5.2349   16.4474 H       1  LIG1        0.0618
     15 C           6.6099    5.1912   14.6383 C.ar    1  LIG1       -0.0599
     16 H           6.9590    6.0195   14.3309 H       1  LIG1        0.0618
     17 C           5.7596    4.4560   13.8231 C.ar    1  LIG1       -0.0350
     18 H           5.5270    4.7691   12.9566 H       1  LIG1        0.0637
     19 C           2.1089    5.5646   11.2764 C.3     1  LIG1       -0.0201
     20 H           2.7833    4.9937   10.8513 H       1  LIG1        0.0293
     21 H           2.4608    6.4744   11.3670 H       1  LIG1        0.0293
     22 H           1.3001    5.5801   10.7235 H       1  LIG1        0.0293
     23 C           1.7754    5.0195   12.6353 C.2     1  LIG1        0.0681
     24 C           0.7543    5.6984   13.4603 C.ar    1  LIG1        0.0403
     25 C           0.4186    5.2694   14.7661 C.ar    1  LIG1        0.1258
     26 C          -0.5476    5.9523   15.4981 C.ar    1  LIG1       -0.0182
     27 H          -0.7531    5.6645   16.3801 H       1  LIG1        0.0655
     28 C          -1.2143    7.0396   14.9692 C.ar    1  LIG1       -0.0399
     29 H          -1.8806    7.4916   15.4721 H       1  LIG1        0.0633
     30 C          -0.8910    7.4589   13.6872 C.ar    1  LIG1        0.0418
     31 C           0.0795    6.8173   12.9456 C.ar    1  LIG1       -0.0310
     32 H           0.2934    7.1361   12.0777 H       1  LIG1        0.0640
     33 H           1.4843    3.8656   14.7726 H       1  LIG1        0.2922
     34 H           3.6373    3.5956   11.7212 H       1  LIG1        0.1966
@<TRIPOS>BOND
     1    22    19    1
     2    20    19    1
     3    19    21    1
     4    19    23    1
     5    34     6    1
     6    32    31    1
     7     4     1    2
     8     6     7    1
     9     6     1    1
    10    23     7    2
    11    23    24    1
    12    31    24   ar
    13    31    30   ar
    14    18    17    1
    15     2    30    1
    16     1     5    2
    17     1     8    1
    18    24    25   ar
    19    30    28   ar
    20    17     8   ar
    21    17    15   ar
    22     8     9   ar
    23    16    15    1
    24    15    13   ar
    25    25     3    1
    26    25    26   ar
    27    33     3    1
    28    28    29    1
    29    28    26   ar
    30    26    27    1
    31     9    10    1
    32     9    11   ar
    33    13    11   ar
    34    13    14    1
    35    11    12    1
