@<TRIPOS>MOLECULE
Diethyl 2,3-O-benzylidene-D-tartarate
 78 80 0 0 0
SMALL
GASTEIGER

@<TRIPOS>ATOM
      1 C           7.8732   23.1213    2.1262 C.ar    1  LIG1        0.0079
      2 C           8.2683   21.8254    1.8401 C.ar    1  LIG1       -0.0538
      3 H           7.8098   21.3298    1.1998 H       1  LIG1        0.0622
      4 C           8.5556   23.8659    3.0907 C.ar    1  LIG1       -0.0538
      5 H           8.2897   24.7351    3.2804 H       1  LIG1        0.0622
      6 C           9.6430   23.3015    3.7720 C.ar    1  LIG1       -0.0613
      7 H          10.1063   23.7837    4.4182 H       1  LIG1        0.0618
      8 C          10.0074   21.9977    3.4522 C.ar    1  LIG1       -0.0617
      9 H          10.7261   21.6081    3.8953 H       1  LIG1        0.0618
     10 C           9.3379   21.2689    2.5042 C.ar    1  LIG1       -0.0613
     11 H           9.6069   20.4024    2.3092 H       1  LIG1        0.0618
     12 C           6.7087   23.5824    1.3559 C.3     1  LIG1        0.1875
     13 H           6.5735   22.9251    0.6417 H       1  LIG1        0.0965
     14 C           5.3004   25.2041    0.5282 C.3     1  LIG1        0.1946
     15 H           5.0516   25.2227   -0.4199 H       1  LIG1        0.0747
     16 C           4.5046   24.1309    1.3066 C.3     1  LIG1        0.1946
     17 H           3.7064   24.4648    1.7676 H       1  LIG1        0.0747
     18 C           5.0244   26.5344    1.2133 C.2     1  LIG1        0.3396
     19 C           3.3116   28.1192    1.7041 C.3     1  LIG1        0.0897
     20 H           3.5875   28.8532    1.1333 H       1  LIG1        0.0694
     21 H           3.6937   28.2463    2.5864 H       1  LIG1        0.0694
     22 C           1.7622   28.0370    1.7833 C.3     1  LIG1       -0.0306
     23 H           1.4707   27.1758    1.4732 H       1  LIG1        0.0262
     24 H           1.3775   28.7233    1.2327 H       1  LIG1        0.0262
     25 H           1.4818   28.1616    2.6932 H       1  LIG1        0.0262
     26 C           4.2567   22.9702    0.3466 C.2     1  LIG1        0.3396
     27 C           2.6837   22.2574   -1.3208 C.3     1  LIG1        0.0897
     28 H           2.6213   21.4093   -0.8547 H       1  LIG1        0.0694
     29 H           3.3059   22.1514   -2.0575 H       1  LIG1        0.0694
     30 C           1.3009   22.6469   -1.8684 C.3     1  LIG1       -0.0306
     31 H           0.7685   23.0152   -1.1602 H       1  LIG1        0.0262
     32 H           0.8666   21.8678   -2.2226 H       1  LIG1        0.0262
     33 H           1.4048   23.2988   -2.5647 H       1  LIG1        0.0262
     34 C           4.1879   17.6834    2.6252 C.ar    2  LIG2        0.0079
     35 C           5.0208   17.1190    3.5972 C.ar    2  LIG2       -0.0538
     36 H           4.8924   16.2365    3.8639 H       2  LIG2        0.0622
     37 C           6.0380   17.8716    4.1627 C.ar    2  LIG2       -0.0613
     38 H           6.5839   17.4979    4.8164 H       2  LIG2        0.0618
     39 C           6.2448   19.1966    3.7503 C.ar    2  LIG2       -0.0617
     40 H           6.9365   19.6975    4.1186 H       2  LIG2        0.0618
     41 C           5.4101   19.7584    2.7859 C.ar    2  LIG2       -0.0613
     42 H           5.5404   20.6382    2.5132 H       2  LIG2        0.0618
     43 C           4.3782   18.9979    2.2293 C.ar    2  LIG2       -0.0538
     44 H           3.8169   19.3768    1.5913 H       2  LIG2        0.0622
     45 C           3.2349   16.7348    2.0246 C.3     2  LIG2        0.1875
     46 H           3.5648   15.8152    2.0948 H       2  LIG2        0.0965
     47 C           0.8921   16.5598    1.7452 C.3     2  LIG2        0.1946
     48 H           0.0686   17.0501    1.9506 H       2  LIG2        0.0747
     49 C           1.4956   16.9971    0.4176 C.3     2  LIG2        0.1946
     50 H           1.3036   16.3214   -0.2630 H       2  LIG2        0.0747
     51 C           0.6978   15.0599    1.8423 C.2     2  LIG2        0.3396
     52 C          -0.8980   13.3268    1.7340 C.3     2  LIG2        0.0897
     53 H          -0.4469   12.9002    2.4796 H       2  LIG2        0.0694
     54 H          -0.6209   12.8949    0.9107 H       2  LIG2        0.0694
     55 C          -2.4028   13.2553    1.9006 C.3     2  LIG2       -0.0306
     56 H          -2.6683   13.7985    2.6454 H       2  LIG2        0.0262
     57 H          -2.6638   12.3463    2.0597 H       2  LIG2        0.0262
     58 H          -2.8283   13.5760    1.1019 H       2  LIG2        0.0262
     59 C           0.9124   18.3141   -0.0149 C.2     2  LIG2        0.3396
     60 C          -0.9693   19.3503   -0.9787 C.3     2  LIG2        0.0897
     61 H          -0.4716   19.8246   -1.6637 H       2  LIG2        0.0694
     62 H          -1.1184   19.9386   -0.2211 H       2  LIG2        0.0694
     63 C          -2.2837   18.7779   -1.5225 C.3     2  LIG2       -0.0306
     64 H          -2.1799   18.5686   -2.4534 H       2  LIG2        0.0262
     65 H          -2.9835   19.4272   -1.4165 H       2  LIG2        0.0262
     66 H          -2.5099   17.9829   -1.0377 H       2  LIG2        0.0262
     67 O           6.6912   24.9073    0.7060 O.3     1  LIG1       -0.3294
     68 O           5.5025   23.5609    2.1613 O.3     1  LIG1       -0.3294
     69 O           5.8916   27.2897    1.6070 O.2     1  LIG1       -0.2478
     70 O           3.7273   26.8583    1.1475 O.3     1  LIG1       -0.4630
     71 O           4.7139   21.8795    0.1838 O.2     1  LIG1       -0.2478
     72 O           3.1766   23.2734   -0.4154 O.3     1  LIG1       -0.4630
     73 O           1.9494   16.8736    2.6730 O.3     2  LIG2       -0.3294
     74 O           2.9093   17.0739    0.6246 O.3     2  LIG2       -0.3294
     75 O           1.5796   14.1953    1.8961 O.2     2  LIG2       -0.2478
     76 O          -0.6017   14.7557    1.6959 O.3     2  LIG2       -0.4630
     77 O           1.4731   19.3638    0.0650 O.2     2  LIG2       -0.2478
     78 O          -0.3021   18.1135   -0.5812 O.3     2  LIG2       -0.4630
@<TRIPOS>BOND
     1    33    30    1
     2    64    63    1
     3    32    30    1
     4    29    27    1
     5    30    27    1
     6    30    31    1
     7    61    60    1
     8    63    65    1
     9    63    66    1
    10    63    60    1
    11    27    28    1
    12    27    72    1
    13    60    78    1
    14    60    62    1
    15    78    59    1
    16    15    14    1
    17    72    26    1
    18    50    49    1
    19    59    77    2
    20    59    49    1
    21    71    26    2
    22    26    16    1
    23    49    74    1
    24    49    47    1
    25    14    67    1
    26    14    18    1
    27    14    16    1
    28    74    45    1
    29    13    12    1
    30    67    12    1
    31    54    52    1
    32    58    55    1
    33    20    19    1
    34    70    18    1
    35    70    19    1
    36     3     2    1
    37    18    69    2
    38    24    22    1
    39    16    17    1
    40    16    68    1
    41    12     1    1
    42    12    68    1
    43    23    22    1
    44    44    43    1
    45    76    52    1
    46    76    51    1
    47    19    22    1
    48    19    21    1
    49    52    55    1
    50    52    53    1
    51    47    51    1
    52    47    48    1
    53    47    73    1
    54    22    25    1
    55     2     1   ar
    56     2    10   ar
    57    51    75    2
    58    55    57    1
    59    55    56    1
    60    45    46    1
    61    45    34    1
    62    45    73    1
    63     1     4   ar
    64    43    34   ar
    65    43    41   ar
    66    11    10    1
    67    10     8   ar
    68    42    41    1
    69    34    35   ar
    70    41    39   ar
    71     4     5    1
    72     4     6   ar
    73     8     6   ar
    74     8     9    1
    75    35    36    1
    76    35    37   ar
    77    39    40    1
    78    39    37   ar
    79     6     7    1
    80    37    38    1
