@<TRIPOS>MOLECULE
2,5-Dioxopyrrolidin-1-yl methanesulfonate
 19 19 0 0 0
SMALL
GASTEIGER

@<TRIPOS>ATOM
      1 S           1.1984    3.3302    7.7121 S.O2    1  LIG1        0.0987
      2 O           2.1867    3.8276    6.4956 O.3     1  LIG1       -0.1137
      3 O          -0.1532    3.5902    7.3399 O.2     1  LIG1       -0.1459
      4 O           1.7892    4.0007    8.8187 O.2     1  LIG1       -0.1459
      5 O           0.6763    5.4424    4.7986 O.2     1  LIG1       -0.2730
      6 O           3.2439    1.7090    5.0687 O.2     1  LIG1       -0.2730
      7 N           1.7575    3.4531    5.2226 N.am    1  LIG1       -0.0881
      8 C           1.1488    4.4097    4.3946 C.2     1  LIG1        0.2475
      9 C           1.2679    3.8816    2.9996 C.3     1  LIG1        0.0350
     10 H           1.7984    4.5013    2.4380 H       1  LIG1        0.0364
     11 H           0.3722    3.7730    2.5931 H       1  LIG1        0.0364
     12 C           1.9742    2.5226    3.1155 C.3     1  LIG1        0.0350
     13 H           1.3445    1.7834    2.9224 H       1  LIG1        0.0364
     14 H           2.7341    2.4678    2.4833 H       1  LIG1        0.0364
     15 C           2.4597    2.4513    4.5393 C.2     1  LIG1        0.2475
     16 C           1.4914    1.6107    7.8021 C.3     1  LIG1        0.0835
     17 H           0.9308    1.2202    8.5042 H       1  LIG1        0.0490
     18 H           2.4354    1.4505    8.0110 H       1  LIG1        0.0490
     19 H           1.2726    1.1966    6.9410 H       1  LIG1        0.0490
@<TRIPOS>BOND
     1    10     9    1
     2    14    12    1
     3    11     9    1
     4    13    12    1
     5     9    12    1
     6     9     8    1
     7    12    15    1
     8     8     5    2
     9     8     7   am
    10    15     6    2
    11    15     7   am
    12     7     2    1
    13     2     1    1
    14    19    16    1
    15     3     1    2
    16     1    16    1
    17     1     4    2
    18    16    18    1
    19    16    17    1
