@<TRIPOS>MOLECULE
1-(3-Chlorobenzoyl)-3-methyl-3-phenylthiourea
 99 102 0 0 0
SMALL
GASTEIGER

@<TRIPOS>ATOM
      1 S           1.4217    8.2831   16.8810 S.2     1  LIG1       -0.0180
      2 CL          5.3621   14.6184   15.7695 Cl      1  LIG1       -0.0835
      3 N           2.2033    8.0899   14.3410 N.am    1  LIG1       -0.2854
      4 H           3.2050   10.1950   16.2721 H       1  LIG1        0.1568
      5 C           2.3634    8.6661   15.5436 C.2     1  LIG1        0.1435
      6 O           5.1099    8.3930   14.8728 O.2     1  LIG1       -0.2698
      7 N           3.3616    9.6480   15.6598 N.am    1  LIG1       -0.2634
      8 C           4.6911    9.4510   15.3164 C.2     1  LIG1        0.2496
      9 C           1.2031    7.0175   14.1943 C.3     1  LIG1        0.0074
     10 H           1.3706    6.3206   14.8632 H       1  LIG1        0.0432
     11 H           1.2682    6.6305   13.2959 H       1  LIG1        0.0432
     12 H           0.3057    7.3883   14.3269 H       1  LIG1        0.0432
     13 C           2.8115    8.5904   13.1268 C.ar    1  LIG1        0.0350
     14 C           3.5353    7.7182   12.3091 C.ar    1  LIG1       -0.0403
     15 H           3.6370    6.8035   12.5471 H       1  LIG1        0.0636
     16 C           4.1027    8.2132   11.1425 C.ar    1  LIG1       -0.0600
     17 H           4.5794    7.6261   10.5671 H       1  LIG1        0.0618
     18 C           3.9817    9.5552   10.8062 C.ar    1  LIG1       -0.0616
     19 H           4.4030    9.8916   10.0238 H       1  LIG1        0.0618
     20 C           3.2418   10.4031   11.6189 C.ar    1  LIG1       -0.0600
     21 H           3.1464   11.3184   11.3838 H       1  LIG1        0.0618
     22 C           2.6410    9.9187   12.7712 C.ar    1  LIG1       -0.0403
     23 H           2.1156   10.4950   13.3133 H       1  LIG1        0.0636
     24 C           5.5842   10.6308   15.5466 C.ar    1  LIG1        0.0384
     25 C           5.0955   11.9366   15.5269 C.ar    1  LIG1       -0.0313
     26 H           4.1778   12.1069   15.3508 H       1  LIG1        0.0640
     27 C           5.9768   12.9827   15.7700 C.ar    1  LIG1        0.0417
     28 C           7.3213   12.7580   16.0138 C.ar    1  LIG1       -0.0433
     29 H           7.9081   13.4854   16.1815 H       1  LIG1        0.0632
     30 C           7.7964   11.4575   16.0103 C.ar    1  LIG1       -0.0597
     31 H           8.7195   11.2947   16.1676 H       1  LIG1        0.0618
     32 C           6.9415   10.3924   15.7794 C.ar    1  LIG1       -0.0495
     33 H           7.2763    9.5027   15.7792 H       1  LIG1        0.0625
     34 S           5.1652   -0.2144   11.5003 S.2     2  LIG2       -0.0180
     35 CL          9.2145    5.8673    9.7147 Cl      2  LIG2       -0.0835
     36 O           8.7750   -0.4164    9.4315 O.2     2  LIG2       -0.2698
     37 N           5.8613   -0.6883    8.9639 N.am    2  LIG2       -0.2854
     38 C           6.0598    0.0077   10.0952 C.2     2  LIG2        0.1435
     39 N           7.0776    0.9796   10.0711 N.am    2  LIG2       -0.2634
     40 H           6.9426    1.6426   10.5340 H       2  LIG2        0.1568
     41 C           8.3972    0.7037    9.7470 C.2     2  LIG2        0.2496
     42 C           4.8824   -1.7838    8.9596 C.3     2  LIG2        0.0074
     43 H           5.1062   -2.4249    9.6668 H       2  LIG2        0.0432
     44 H           4.9023   -2.2353    8.0908 H       2  LIG2        0.0432
     45 H           3.9858   -1.4225    9.1199 H       2  LIG2        0.0432
     46 C           6.4498   -0.3273    7.6923 C.ar    2  LIG2        0.0350
     47 C           7.1116   -1.3003    6.9370 C.ar    2  LIG2       -0.0403
     48 H           7.1773   -2.1942    7.2514 H       2  LIG2        0.0636
     49 C           7.6735   -0.9373    5.7166 C.ar    2  LIG2       -0.0600
     50 H           8.1081   -1.5944    5.1860 H       2  LIG2        0.0618
     51 C           7.6039    0.3725    5.2670 C.ar    2  LIG2       -0.0616
     52 H           8.0213    0.6168    4.4494 H       2  LIG2        0.0618
     53 C           6.9223    1.3282    6.0141 C.ar    2  LIG2       -0.0600
     54 H           6.8649    2.2227    5.7015 H       2  LIG2        0.0618
     55 C           6.3266    0.9715    7.2174 C.ar    2  LIG2       -0.0403
     56 H           5.8366    1.6151    7.7146 H       2  LIG2        0.0636
     57 C           9.3246    1.8694    9.8104 C.ar    2  LIG2        0.0384
     58 C           8.8732    3.1854    9.6939 C.ar    2  LIG2       -0.0313
     59 H           7.9532    3.3682    9.5431 H       2  LIG2        0.0640
     60 C           9.7926    4.2219    9.8029 C.ar    2  LIG2        0.0417
     61 C          11.1473    3.9786    9.9888 C.ar    2  LIG2       -0.0433
     62 H          11.7613    4.6992   10.0656 H       2  LIG2        0.0632
     63 C          11.5873    2.6677   10.0600 C.ar    2  LIG2       -0.0597
     64 H          12.5149    2.4895   10.1613 H       2  LIG2        0.0618
     65 C          10.6925    1.6120    9.9847 C.ar    2  LIG2       -0.0495
     66 H          11.0044    0.7170   10.0516 H       2  LIG2        0.0625
     67 S           0.0656    6.1811    5.6489 S.2     3  LIG3       -0.0180
     68 CL          4.2481   12.1825    3.6071 Cl      3  LIG3       -0.0835
     69 N           0.7874    5.6935    3.1269 N.am    3  LIG3       -0.2854
     70 C           0.9639    6.3985    4.2509 C.2     3  LIG3        0.1435
     71 O           3.6719    5.9032    3.8225 O.2     3  LIG3       -0.2698
     72 N           1.9724    7.3831    4.2054 N.am    3  LIG3       -0.2634
     73 H           1.7970    8.0478    4.6479 H       3  LIG3        0.1568
     74 C           3.3077    7.0530    3.9982 C.2     3  LIG3        0.2496
     75 C          -0.2006    4.5995    3.0937 C.3     3  LIG3        0.0074
     76 H           0.0107    3.9466    3.7929 H       3  LIG3        0.0432
     77 H          -0.1726    4.1599    2.2186 H       3  LIG3        0.0432
     78 H          -1.0973    4.9637    3.2478 H       3  LIG3        0.0432
     79 C           1.4592    6.0040    1.8816 C.ar    3  LIG3        0.0350
     80 C           2.2983    5.0511    1.3028 C.ar    3  LIG3       -0.0403
     81 H           2.4211    4.2032    1.7136 H       3  LIG3        0.0636
     82 C           2.9499    5.3617    0.1217 C.ar    3  LIG3       -0.0600
     83 H           3.5337    4.7251   -0.2751 H       3  LIG3        0.0618
     84 C           2.7576    6.5934   -0.4866 C.ar    3  LIG3       -0.0616
     85 H           3.2167    6.8022   -1.2922 H       3  LIG3        0.0618
     86 C           1.8956    7.5216    0.0813 C.ar    3  LIG3       -0.0600
     87 H           1.7566    8.3607   -0.3431 H       3  LIG3        0.0618
     88 C           1.2361    7.2299    1.2625 C.ar    3  LIG3       -0.0403
     89 H           0.6384    7.8596    1.6474 H       3  LIG3        0.0636
     90 C           4.2594    8.2057    3.9874 C.ar    3  LIG3        0.0384
     91 C           3.8329    9.5205    3.8037 C.ar    3  LIG3       -0.0313
     92 H           2.9128    9.7190    3.6727 H       3  LIG3        0.0640
     93 C           4.7830   10.5338    3.8152 C.ar    3  LIG3        0.0417
     94 C           6.1349   10.2718    3.9827 C.ar    3  LIG3       -0.0433
     95 H           6.7668   10.9815    3.9931 H       3  LIG3        0.0632
     96 C           6.5464    8.9578    4.1347 C.ar    3  LIG3       -0.0597
     97 H           7.4713    8.7631    4.2317 H       3  LIG3        0.0618
     98 C           5.6219    7.9212    4.1462 C.ar    3  LIG3       -0.0495
     99 H           5.9124    7.0238    4.2613 H       3  LIG3        0.0625
@<TRIPOS>BOND
     1    85    84    1
     2    84    86   ar
     3    84    82   ar
     4    87    86    1
     5    83    82    1
     6    86    88   ar
     7    82    80   ar
     8    88    89    1
     9    88    79   ar
    10    80    81    1
    11    80    79   ar
    12    79    69    1
    13    77    75    1
    14    75    69    1
    15    75    78    1
    16    75    76    1
    17    69    70    1
    18    68    93    1
    19    92    91    1
    20    91    93   ar
    21    91    90   ar
    22    93    94   ar
    23    71    74    2
    24    94    95    1
    25    94    96   ar
    26    90    74    1
    27    90    98   ar
    28    74    72   am
    29    96    98   ar
    30    96    97    1
    31    98    99    1
    32    72    70    1
    33    72    73    1
    34    70    67    2
    35    52    51    1
    36    50    49    1
    37    51    49   ar
    38    51    53   ar
    39    54    53    1
    40    49    47   ar
    41    53    55   ar
    42    47    48    1
    43    47    46   ar
    44    55    46   ar
    45    55    56    1
    46    46    37    1
    47    44    42    1
    48    42    37    1
    49    42    45    1
    50    42    43    1
    51    37    38    1
    52    36    41    2
    53    59    58    1
    54    58    60   ar
    55    58    57   ar
    56    35    60    1
    57    41    57    1
    58    41    39   am
    59    60    61   ar
    60    57    65   ar
    61    65    66    1
    62    65    63   ar
    63    61    63   ar
    64    61    62    1
    65    19    18    1
    66    63    64    1
    67    39    38    1
    68    39    40    1
    69    38    34    2
    70    17    16    1
    71    18    16   ar
    72    18    20   ar
    73    16    14   ar
    74    21    20    1
    75    20    22   ar
    76    14    15    1
    77    14    13   ar
    78    22    13   ar
    79    22    23    1
    80    13     3    1
    81    11     9    1
    82     9    12    1
    83     9     3    1
    84     9    10    1
    85     3     5    1
    86     6     8    2
    87     8    24    1
    88     8     7   am
    89    26    25    1
    90    25    24   ar
    91    25    27   ar
    92     5     7    1
    93     5     1    2
    94    24    32   ar
    95     7     4    1
    96     2    27    1
    97    27    28   ar
    98    33    32    1
    99    32    30   ar
   100    30    28   ar
   101    30    31    1
   102    28    29    1
