@<TRIPOS>MOLECULE
2-(3,4-Dichlorophenoxy)propionic acid
 22 22 0 0 0
SMALL
GASTEIGER

@<TRIPOS>ATOM
      1 C           3.2758    5.4649   18.9324 C.3     1  LIG1        0.1931
      2 H           4.2647    5.3822   19.0553 H       1  LIG1        0.0849
      3 C           2.7794    4.4031   17.9627 C.2     1  LIG1        0.3456
      4 O           3.5561    4.3217   16.9017 O.3     1  LIG1       -0.4781
      5 H           3.1983    3.8087   16.4185 H       1  LIG1        0.2952
      6 O           1.7611    3.7587   18.1261 O.2     1  LIG1       -0.2468
      7 O           2.6130    5.3515   20.1883 O.3     1  LIG1       -0.4779
      8 C           2.9282    6.8467   18.3808 C.3     1  LIG1       -0.0172
      9 H           1.9596    6.9096   18.2450 H       1  LIG1        0.0271
     10 H           3.3877    6.9820   17.5276 H       1  LIG1        0.0271
     11 H           3.2141    7.5341   19.0187 H       1  LIG1        0.0271
     12 C           3.0032    4.3319   21.0255 C.ar    1  LIG1        0.1232
     13 C           3.9335    3.3580   20.6908 C.ar    1  LIG1       -0.0002
     14 H           4.3623    3.3740   19.8423 H       1  LIG1        0.0669
     15 C           4.2313    2.3570   21.6100 C.ar    1  LIG1        0.0627
     16 C           3.6277    2.3423   22.8597 C.ar    1  LIG1        0.0595
     17 C           2.7131    3.3317   23.1888 C.ar    1  LIG1       -0.0385
     18 H           2.3044    3.3272   24.0465 H       1  LIG1        0.0634
     19 C           2.3895    4.3262   22.2822 C.ar    1  LIG1       -0.0184
     20 H           1.7571    4.9975   22.5123 H       1  LIG1        0.0654
     21 CL          5.3536    1.1297   21.1461 Cl      1  LIG1       -0.0819
     22 CL          4.0039    1.1054   24.0104 Cl      1  LIG1       -0.0820
@<TRIPOS>BOND
     1     5     4    1
     2     4     3    1
     3    10     8    1
     4     3     6    2
     5     3     1    1
     6     9     8    1
     7     8     1    1
     8     8    11    1
     9     1     2    1
    10     1     7    1
    11    14    13    1
    12     7    12    1
    13    13    12   ar
    14    13    15   ar
    15    12    19   ar
    16    21    15    1
    17    15    16   ar
    18    19    20    1
    19    19    17   ar
    20    16    17   ar
    21    16    22    1
    22    17    18    1
