@<TRIPOS>MOLECULE
<i>N</i>'-[1-(2-Thienyl)ethylidene]acetohydrazide
 22 22 0 0 0
SMALL
GASTEIGER

@<TRIPOS>ATOM
      1 S           1.0877    4.3839    1.2097 S.2     1  LIG1       -0.0954
      2 O           4.5802    0.1967   -1.5834 O.2     1  LIG1       -0.2744
      3 N           3.0309    2.3322    0.6841 N.2     1  LIG1       -0.1840
      4 N           3.9048    1.3899    0.1836 N.am    1  LIG1       -0.2070
      5 C           0.3527    5.3482    2.4075 C.ar    1  LIG1       -0.0237
      6 H          -0.3352    5.9491    2.2329 H       1  LIG1        0.0693
      7 C           0.8774    5.1465    3.6401 C.ar    1  LIG1       -0.0541
      8 H           0.5922    5.5968    4.4015 H       1  LIG1        0.0623
      9 C           1.9169    4.1648    3.6407 C.ar    1  LIG1       -0.0457
     10 H           2.3848    3.8976    4.3980 H       1  LIG1        0.0629
     11 C           2.1420    3.6588    2.3607 C.ar    1  LIG1        0.0346
     12 C           3.0969    2.6349    1.9331 C.2     1  LIG1        0.0699
     13 C           4.0310    2.0428    2.9464 C.3     1  LIG1       -0.0198
     14 H           4.2602    1.1481    2.6868 H       1  LIG1        0.0293
     15 H           3.6023    2.0271    3.8050 H       1  LIG1        0.0293
     16 H           4.8278    2.5762    2.9964 H       1  LIG1        0.0293
     17 C           3.7936    1.0082   -1.1126 C.2     1  LIG1        0.2291
     18 C           2.6782    1.6111   -1.9213 C.3     1  LIG1        0.0138
     19 H           2.7445    1.3106   -2.8311 H       1  LIG1        0.0323
     20 H           2.7450    2.5684   -1.8938 H       1  LIG1        0.0323
     21 H           1.8340    1.3380   -1.5547 H       1  LIG1        0.0323
     22 H           4.5606    1.0180    0.6591 H       1  LIG1        0.1772
@<TRIPOS>BOND
     1    19    18    1
     2    18    20    1
     3    18    21    1
     4    18    17    1
     5     2    17    2
     6    17     4   am
     7     4    22    1
     8     4     3    1
     9     3    12    2
    10     1    11   ar
    11     1     5   ar
    12    12    11    1
    13    12    13    1
    14     6     5    1
    15    11     9   ar
    16     5     7   ar
    17    14    13    1
    18    13    16    1
    19    13    15    1
    20     7     9   ar
    21     7     8    1
    22     9    10    1
