@<TRIPOS>MOLECULE
4-Bromo-2-chloro-1-methoxy-benzene
 16 16 0 0 0
SMALL
GASTEIGER

@<TRIPOS>ATOM
      1 BR          4.5778    6.2719    1.7915 Br      1  LIG1       -0.0502
      2 CL          6.0502    6.4155    7.1033 Cl      1  LIG1       -0.0797
      3 O           3.7470    4.7969    7.5836 O.3     1  LIG1       -0.4936
      4 C           3.8611    5.0647    6.2592 C.ar    1  LIG1        0.1384
      5 C           4.9486    5.8567    5.8762 C.ar    1  LIG1        0.0835
      6 C           5.1650    6.2123    4.5706 C.ar    1  LIG1       -0.0258
      7 H           5.9090    6.7537    4.3357 H       1  LIG1        0.0644
      8 C           4.2812    5.7694    3.5959 C.ar    1  LIG1        0.0195
      9 C           3.1918    4.9845    3.9403 C.ar    1  LIG1       -0.0442
     10 H           2.5891    4.6860    3.2705 H       1  LIG1        0.0630
     11 C           2.9849    4.6364    5.2653 C.ar    1  LIG1       -0.0175
     12 H           2.2365    4.0995    5.4986 H       1  LIG1        0.0655
     13 C           2.6781    3.9295    7.9855 C.3     1  LIG1        0.0789
     14 H           1.8218    4.3135    7.7004 H       1  LIG1        0.0660
     15 H           2.6845    3.8336    8.9609 H       1  LIG1        0.0660
     16 H           2.7970    3.0502    7.5697 H       1  LIG1        0.0660
@<TRIPOS>BOND
     1     1     8    1
     2    10     9    1
     3     8     9   ar
     4     8     6   ar
     5     9    11   ar
     6     7     6    1
     7     6     5   ar
     8    11    12    1
     9    11     4   ar
    10     5     4   ar
    11     5     2    1
    12     4     3    1
    13    16    13    1
    14     3    13    1
    15    14    13    1
    16    13    15    1
