@<TRIPOS>MOLECULE
Ethyl 6-(hydroxymethyl)picolinate
 24 24 0 0 0
SMALL
GASTEIGER

@<TRIPOS>ATOM
      1 O           1.6362    2.5108   -1.1878 O.3     1  LIG1       -0.4604
      2 O           1.8348    2.9938    0.9723 O.2     1  LIG1       -0.2432
      3 N           1.9679    0.3127    1.5604 N.ar    1  LIG1       -0.2427
      4 C           1.2763    4.0469   -2.9434 C.3     1  LIG1       -0.0306
      5 H           1.2526    4.9944   -3.1947 H       1  LIG1        0.0262
      6 H           0.4016    3.6415   -3.1159 H       1  LIG1        0.0262
      7 H           1.9606    3.5854   -3.4720 H       1  LIG1        0.0262
      8 C           1.6013    3.9265   -1.5047 C.3     1  LIG1        0.0900
      9 H           2.4798    4.3419   -1.3150 H       1  LIG1        0.0695
     10 H           0.9132    4.3835   -0.9589 H       1  LIG1        0.0695
     11 C           1.7611    2.1900    0.0997 C.2     1  LIG1        0.3577
     12 C           2.2715   -1.3809    3.2403 C.3     1  LIG1        0.0862
     13 H1          3.2126   -1.1737    3.4662 H       1  LIG1        0.0622
     14 H2          1.6871   -0.8534    3.8413 H       1  LIG1        0.0622
     15 CA          1.9995   -0.9981    1.8084 C.ar    1  LIG1        0.0675
     16 C           1.8247   -1.9520    0.8171 C.ar    1  LIG1       -0.0381
     17 H           1.8333   -2.8777    1.0275 H       1  LIG1        0.0636
     18 C           1.6393   -1.5239   -0.4802 C.ar    1  LIG1       -0.0578
     19 H           1.5266   -2.1556   -1.1807 H       1  LIG1        0.0619
     20 C           1.6187   -0.1692   -0.7531 C.ar    1  LIG1       -0.0292
     21 H           1.4951    0.1466   -1.6404 H       1  LIG1        0.0641
     22 C           1.7812    0.7077    0.2901 C.ar    1  LIG1        0.1479
     23 O           2.0381   -2.7124    3.4287 O.3     1  LIG1       -0.3889
     24 H           2.1941   -2.9139    4.2295 H       1  LIG1        0.2099
@<TRIPOS>BOND
     1     7     4    1
     2     5     4    1
     3     6     4    1
     4     4     8    1
     5    21    20    1
     6     8     9    1
     7     8     1    1
     8     8    10    1
     9     1    11    1
    10    19    18    1
    11    20    18   ar
    12    20    22   ar
    13    18    16   ar
    14    11    22    1
    15    11     2    2
    16    22     3   ar
    17    16    17    1
    18    16    15   ar
    19     3    15   ar
    20    15    12    1
    21    12    23    1
    22    12    13    1
    23    12    14    1
    24    23    24    1
