@<TRIPOS>MOLECULE
2-Methoxybenzaldehyde azine
 18 18 0 0 0
SMALL
GASTEIGER

@<TRIPOS>ATOM
      1 C           0.4240    1.3064    1.1476 C.ar    1  LIG1        0.0364
      2 C           0.3027    2.0129   -0.0528 C.ar    1  LIG1        0.1287
      3 C           1.4376    2.4860   -0.6949 C.ar    1  LIG1       -0.0193
      4 H           1.3613    2.9750   -1.4827 H       1  LIG1        0.0654
      5 C           2.6753    2.2283   -0.1596 C.ar    1  LIG1       -0.0583
      6 H           3.4384    2.5249   -0.6002 H       1  LIG1        0.0619
      7 C           2.7973    1.5436    1.0040 C.ar    1  LIG1       -0.0609
      8 H           3.6409    1.3842    1.3613 H       1  LIG1        0.0618
      9 C           1.6809    1.0882    1.6557 C.ar    1  LIG1       -0.0496
     10 H           1.7770    0.6227    2.4555 H       1  LIG1        0.0625
     11 C          -0.7636    0.7954    1.8248 C.2     1  LIG1        0.0605
     12 H          -1.5944    0.9031    1.4204 H       1  LIG1        0.0855
     13 C          -1.1508    2.7534   -1.7962 C.3     1  LIG1        0.0788
     14 H          -2.0895    2.8201   -1.9869 H       1  LIG1        0.0660
     15 H          -0.7295    2.1944   -2.4530 H       1  LIG1        0.0660
     16 H          -0.7561    3.6287   -1.8203 H       1  LIG1        0.0660
     17 N          -0.6972    0.2095    2.9478 N.2     1  LIG1       -0.1570
     18 O          -0.9687    2.1883   -0.5083 O.3     1  LIG1       -0.4945
@<TRIPOS>BOND
     1    15    13    1
     2    14    13    1
     3    16    13    1
     4    13    18    1
     5     4     3    1
     6     3     5   ar
     7     3     2   ar
     8     6     5    1
     9    18     2    1
    10     5     7   ar
    11     2     1   ar
    12     7     8    1
    13     7     9   ar
    14     1     9   ar
    15     1    11    1
    16    12    11    1
    17     9    10    1
    18    11    17    2
