@<TRIPOS>MOLECULE
N-(2,3-dichlorophenyl)acetamide
 19 19 0 0 0
SMALL
GASTEIGER

@<TRIPOS>ATOM
      1 C           0.1298   -3.9542   -0.4397 C.3     1  LIG1        0.0125
      2 H          -0.0784   -4.7857   -0.0090 H       1  LIG1        0.0323
      3 H           1.0821   -3.8379   -0.4667 H       1  LIG1        0.0323
      4 H          -0.2172   -3.9628   -1.3357 H       1  LIG1        0.0323
      5 C          -0.4862   -2.8325    0.3216 C.2     1  LIG1        0.2141
      6 C           0.0286   -1.0434    1.9414 C.ar    1  LIG1        0.0533
      7 C           0.6591   -0.8927    3.1724 C.ar    1  LIG1        0.0804
      8 C           0.3727    0.2094    3.9651 C.ar    1  LIG1        0.0610
      9 C          -0.5461    1.1523    3.5568 C.ar    1  LIG1       -0.0419
     10 H          -0.7367    1.8883    4.0938 H       1  LIG1        0.0633
     11 C          -1.1775    0.9895    2.3438 C.ar    1  LIG1       -0.0585
     12 H          -1.8070    1.6152    2.0671 H       1  LIG1        0.0619
     13 C          -0.8901   -0.0857    1.5361 C.ar    1  LIG1       -0.0390
     14 H          -1.3152   -0.1727    0.7135 H       1  LIG1        0.0637
     15 N           0.3638   -2.1528    1.1317 N.am    1  LIG1       -0.2845
     16 H           1.1738   -2.4125    1.1816 H       1  LIG1        0.1548
     17 O          -1.6677   -2.5533    0.2245 O.2     1  LIG1       -0.2758
     18 CL          1.7812   -2.0888    3.7168 Cl      1  LIG1       -0.0801
     19 CL          1.1515    0.4257    5.4988 Cl      1  LIG1       -0.0820
@<TRIPOS>BOND
     1     4     1    1
     2     3     1    1
     3     1     2    1
     4     1     5    1
     5    17     5    2
     6     5    15   am
     7    14    13    1
     8    15    16    1
     9    15     6    1
    10    13     6   ar
    11    13    11   ar
    12     6     7   ar
    13    12    11    1
    14    11     9   ar
    15     7    18    1
    16     7     8   ar
    17     9     8   ar
    18     9    10    1
    19     8    19    1
