@<TRIPOS>MOLECULE
4-(Hydrazinecarbonyl)pyridinium 3-carboxy-4-hydroxybenzenesulfonate  monohydrate
 40 39 0 0 0
SMALL
GASTEIGER

@<TRIPOS>ATOM
      1 C           2.3917    6.7741   14.0171 C.3     1  LIG1        0.1079
      2 C           3.7724    6.8948   14.1281 C.2     1  LIG1       -0.0500
      3 H           4.2954    7.0136   13.3680 H       1  LIG1        0.0598
      4 C           4.3588    6.8370   15.3683 C.2     1  LIG1       -0.0094
      5 H           5.2822    6.9052   15.4491 H       1  LIG1        0.0778
      6 C           2.2760    6.5707   16.3889 C.2     1  LIG1       -0.0094
      7 H           1.7782    6.4662   17.1670 H       1  LIG1        0.0778
      8 C           1.6467    6.6112   15.1755 C.2     1  LIG1       -0.0500
      9 H           0.7212    6.5289   15.1266 H       1  LIG1        0.0598
     10 C           1.6491    6.7852   12.6946 C.2     1  LIG1        0.2418
     11 C           2.0990    9.3555    4.4787 C.ar    2  LIG2        0.1020
     12 C           3.4117    9.4324    4.9615 C.ar    2  LIG2        0.1309
     13 C           3.6269    9.5513    6.3450 C.ar    2  LIG2       -0.0175
     14 H           4.4963    9.6019    6.6730 H       2  LIG2        0.0655
     15 C           2.5732    9.5941    7.2129 C.ar    2  LIG2       -0.0308
     16 H           2.7264    9.6764    8.1260 H       2  LIG2        0.0638
     17 C           1.2539    9.5144    6.7239 C.ar    2  LIG2        0.1206
     18 C           1.0300    9.4015    5.3696 C.ar    2  LIG2       -0.0168
     19 H           0.1583    9.3563    5.0484 H       2  LIG2        0.0647
     20 C           1.8607    9.2413    3.0187 C.2     2  LIG2        0.3404
     21 N           1.8167    6.6987   10.3135 N.3     1  LIG1       -0.2544
     22 H           1.2703    7.3559   10.1902 H       1  LIG1        0.1405
     23 H           1.3735    5.9618   10.3515 H       1  LIG1        0.1405
     24 N           2.3965    6.8144   11.5978 N.am    1  LIG1       -0.2526
     25 H           3.2466    6.8986   11.5822 H       1  LIG1        0.1687
     26 N           3.6013    6.6817   16.4580 N.pl3   1  LIG1       -0.3269
     27 H           4.0435    6.6504   17.1976 H       1  LIG1        0.1510
     28 O           0.4249    6.7379   12.6576 O.2     1  LIG1       -0.2732
     29 O           2.7553    9.1795    2.2039 O.2     2  LIG2       -0.2450
     30 O           0.5969    9.1916    2.6935 O.3     2  LIG2       -0.4770
     31 H           0.4955    9.0806    1.8842 H       2  LIG2        0.2954
     32 O           4.4963    9.3974    4.1616 O.3     2  LIG2       -0.5059
     33 H           4.2114    9.3419    3.3950 H       2  LIG2        0.2922
     34 O          -1.3035    9.6151    7.0310 O.2     2  LIG2       -0.1397
     35 O          -0.0234    8.3207    8.6136 O.2     2  LIG2       -0.1397
     36 O           0.0727   10.7367    8.6669 O.3     2  LIG2       -0.0427
     37 O           5.1652    7.3243   11.0683 O.3     3  HOH3       -0.4105
     38 H           5.2436    8.0954   10.7843 H       0  HOH0        0.2052
     39 H           5.7996    7.0946   11.5550 H       0  HOH0        0.2052
     40 S          -0.1072    9.5449    7.8442 S.3     2  LIG2        0.1397
@<TRIPOS>BOND
     1    31    30    1
     2    29    20    2
     3    30    20    1
     4    20    11    1
     5    33    32    1
     6    32    12    1
     7    11    12   ar
     8    11    18   ar
     9    12    13   ar
    10    19    18    1
    11    18    17   ar
    12    13    14    1
    13    13    15   ar
    14    17    15   ar
    15    17    40    1
    16    34    40    2
    17    15    16    1
    18    40    35    2
    19    40    36    1
    20    22    21    1
    21    21    23    1
    22    21    24    1
    23    38    37    1
    24    37    39    1
    25    25    24    1
    26    24    10   am
    27    28    10    2
    28    10     1    1
    29     3     2    1
    30     1     2    1
    31     1     8    1
    32     2     4    2
    33     9     8    1
    34     8     6    2
    35     4     5    1
    36     4    26    1
    37     6    26    1
    38     6     7    1
    39    26    27    1
