@<TRIPOS>MOLECULE
Methyl 3-carboxy-7-(tert-butoxycarbonyl)-4,7-diazaheptanoate
 42 41 0 0 0
SMALL
GASTEIGER

@<TRIPOS>ATOM
      1 O           9.9483   12.3046    6.1028 O.3     0  UNK0       -0.4447
      2 O           9.9678   13.2853    4.0587 O.2     0  UNK0       -0.2265
      3 O          12.3134    6.5438    1.3449 O.3     1  UNK1       -0.4795
      4 H          13.0938    6.4663    1.5869 H       1  UNK1        0.2951
      5 O          12.1424    7.7997    3.1728 O.2     1  UNK1       -0.2492
      6 O           9.6442    5.7638    4.1167 O.2     1  UNK1       -0.2508
      7 O           8.3854    4.4076    2.8531 O.3     1  UNK1       -0.4679
      8 N           9.4537   11.1035    4.3498 N.am    0  UNK0       -0.2799
      9 H           9.4688   10.4436    4.8999 H       0  UNK0        0.1520
     10 N           9.5706    8.4382    2.6986 N.3     1  UNK1       -0.3022
     11 H           9.0824    8.2360    3.3773 H       1  UNK1        0.1228
     12 C           9.1820   14.5730    6.6296 C.3     0  UNK0       -0.0253
     13 H           9.2220   14.8802    5.7215 H       0  UNK0        0.0268
     14 H           9.3141   15.3135    7.2253 H       0  UNK0        0.0268
     15 H           8.3237   14.1777    6.7957 H       0  UNK0        0.0268
     16 C          10.2438   13.0526    8.2799 C.3     0  UNK0       -0.0253
     17 H          10.9463   12.4095    8.3969 H       0  UNK0        0.0268
     18 H           9.3974   12.6406    8.4692 H       0  UNK0        0.0268
     19 H          10.3813   13.7900    8.8800 H       0  UNK0        0.0268
     20 C          11.6206   14.0455    6.4394 C.3     0  UNK0       -0.0253
     21 H          11.5817   14.3693    5.5366 H       0  UNK0        0.0268
     22 H          12.2506   13.3233    6.4939 H       0  UNK0        0.0268
     23 H          11.8967   14.7570    7.0226 H       0  UNK0        0.0268
     24 C          10.2525   13.5544    6.8591 C.3     0  UNK0        0.1068
     25 C           9.8087   12.3320    4.7865 C.2     0  UNK0        0.4008
     26 C           9.0478   10.8693    2.9799 C.3     0  UNK0        0.0273
     27 H           9.1127   11.7040    2.4879 H       0  UNK0        0.0475
     28 H           8.1169   10.5957    2.9719 H       0  UNK0        0.0475
     29 C           9.8682    9.8233    2.2709 C.3     0  UNK0        0.0123
     30 H           9.7113    9.8963    1.3163 H       0  UNK0        0.0439
     31 H          10.8088   10.0027    2.4290 H       0  UNK0        0.0439
     32 C          10.2168    7.4454    1.8155 C.3     1  UNK1        0.1158
     33 H          10.1984    7.8285    0.9135 H       1  UNK1        0.0581
     34 C          11.6943    7.2432    2.1655 C.2     1  UNK1        0.3225
     35 C           9.4234    6.1424    1.7449 C.3     1  UNK1        0.0706
     36 H           8.5585    6.3279    1.3458 H       1  UNK1        0.0398
     37 H           9.9678    5.5449    1.2091 H       1  UNK1        0.0398
     38 C           9.2047    5.4598    3.0514 C.2     1  UNK1        0.3089
     39 C           7.9924    3.6292    3.9899 C.3     1  UNK1        0.0817
     40 H           8.7144    3.5973    4.6213 H       1  UNK1        0.0661
     41 H           7.7738    2.7382    3.7077 H       1  UNK1        0.0661
     42 H           7.2239    4.0321    4.4034 H       1  UNK1        0.0661
@<TRIPOS>BOND
     1    33    32    1
     2    37    35    1
     3    30    29    1
     4     3     4    1
     5     3    34    1
     6    36    35    1
     7    35    32    1
     8    35    38    1
     9    32    34    1
    10    32    10    1
    11    34     5    2
    12    29    31    1
    13    29    10    1
    14    29    26    1
    15    27    26    1
    16    10    11    1
    17     7    38    1
    18     7    39    1
    19    28    26    1
    20    26     8    1
    21    38     6    2
    22    41    39    1
    23    39    42    1
    24    39    40    1
    25     2    25    2
    26     8    25   am
    27     8     9    1
    28    25     1    1
    29    21    20    1
    30    13    12    1
    31     1    24    1
    32    20    22    1
    33    20    24    1
    34    20    23    1
    35    12    15    1
    36    12    24    1
    37    12    14    1
    38    24    16    1
    39    16    17    1
    40    16    18    1
    41    16    19    1
