@<TRIPOS>MOLECULE
Isophthalic acid--3,6-bis(2-pyrazinyl)-1,4-dihydro-1,2,4,5-tetrazine (1/1)
 24 23 0 0 0
SMALL
GASTEIGER

@<TRIPOS>ATOM
      1 O           9.0800    6.3397    0.3511 O.3     1  LIG1       -0.4771
      2 H           8.7480    5.6572    0.6637 H       1  LIG1        0.2954
      3 O          10.9383    5.1289    0.4678 O.2     1  LIG1       -0.2451
      4 N           7.1461    1.8049    2.8476 N.ar    2  LIG2       -0.2547
      5 N           7.9969    4.1600    1.6347 N.ar    2  LIG2       -0.2599
      6 N          10.6509    1.2869    3.0709 N.3     2  LIG2       -0.1286
      7 N          11.4007    0.1811    3.5387 N.3     2  LIG2       -0.1587
      8 H          12.2794    0.2962    3.3576 H       2  LIG2        0.1632
      9 C          10.3749    6.1536    0.1663 C.2     1  LIG1        0.3368
     10 C          11.0707    7.3251   -0.4141 C.2     1  LIG1        0.0589
     11 C          12.4591    7.3305   -0.4200 C.2     1  LIG1       -0.0478
     12 H          12.9256    6.5995   -0.0818 H       1  LIG1        0.0626
     13 C          13.1491    8.4135   -0.9259 C.2     1  LIG1       -0.0610
     14 H          14.0797    8.4135   -0.9259 H       1  LIG1        0.0618
     15 C          10.3789    8.4135   -0.9259 C.2     1  LIG1       -0.0470
     16 H           9.4483    8.4135   -0.9259 H       1  LIG1        0.0626
     17 C           8.8610    3.2469    2.0591 C.ar    2  LIG2        0.0509
     18 H           9.7721    3.4024    1.9532 H       2  LIG2        0.0848
     19 C           6.7066    3.9029    1.8384 C.ar    2  LIG2        0.0457
     20 H           6.0713    4.5265    1.5644 H       2  LIG2        0.0845
     21 C           6.2887    2.7411    2.4436 C.ar    2  LIG2        0.0460
     22 H           5.3778    2.6048    2.5750 H       2  LIG2        0.0845
     23 C           8.4446    2.0687    2.6558 C.ar    2  LIG2        0.0871
     24 C           9.3978    1.0466    3.1006 C.3     2  LIG2        0.1553
@<TRIPOS>BOND
     1    16    15    1
     2    15    10    2
     3    14    13    1
     4    13    11    2
     5    11    10    1
     6    11    12    1
     7    10     9    1
     8     9     1    1
     9     9     3    2
    10     1     2    1
    11    20    19    1
    12     5    19   ar
    13     5    17   ar
    14    19    21   ar
    15    18    17    1
    16    17    23   ar
    17    21    22    1
    18    21     4   ar
    19    23     4   ar
    20    23    24    1
    21     6    24    1
    22     6     7    1
    23     8     7    1
