@<TRIPOS>MOLECULE
Methyl 2,6-dihydroxy-3-nitrobenzoate
 22 22 0 0 0
SMALL
GASTEIGER

@<TRIPOS>ATOM
      1 N           0.4692    1.6770    7.5101 N.pl3   1  LIG1        0.0601
      2 O           0.8130    0.5504    7.1951 O.2     1  LIG1       -0.1260
      3 O          -0.2224    1.8839    8.5208 O.2     1  LIG1       -0.1260
      4 O          -0.1216    4.4197    8.1590 O.3     1  LIG1       -0.5037
      5 H          -0.3313    3.7233    8.5572 H       1  LIG1        0.2923
      6 O           2.1895    5.7679    4.2221 O.3     1  LIG1       -0.5058
      7 H           2.0279    6.5195    4.5363 H       1  LIG1        0.2922
      8 O           1.2660    7.4804    5.7965 O.2     1  LIG1       -0.2447
      9 O           0.2402    6.8793    7.6786 O.3     1  LIG1       -0.4643
     10 C           0.8722    2.7844    6.6921 C.ar    1  LIG1        0.1684
     11 C           0.5754    4.1138    7.0679 C.ar    1  LIG1        0.1646
     12 C           1.0346    5.1561    6.2359 C.ar    1  LIG1        0.1437
     13 C           1.7236    4.8311    5.0472 C.ar    1  LIG1        0.1345
     14 C           1.9608    3.5036    4.6863 C.ar    1  LIG1       -0.0170
     15 H           2.4007    3.3047    3.8791 H       1  LIG1        0.0655
     16 C           1.5539    2.5026    5.5033 C.ar    1  LIG1       -0.0244
     17 H           1.7310    1.6101    5.2691 H       1  LIG1        0.0643
     18 C           0.8549    6.5962    6.5435 C.2     1  LIG1        0.3461
     19 C           0.0892    8.2928    7.9866 C.3     1  LIG1        0.0820
     20 H           0.9592    8.7208    7.9721 H       1  LIG1        0.0661
     21 H          -0.3060    8.3922    8.8671 H       1  LIG1        0.0661
     22 H          -0.4867    8.7080    7.3258 H       1  LIG1        0.0661
@<TRIPOS>BOND
     1    15    14    1
     2     6     7    1
     3     6    13    1
     4    14    13   ar
     5    14    16   ar
     6    13    12   ar
     7    17    16    1
     8    16    10   ar
     9     8    18    2
    10    12    18    1
    11    12    11   ar
    12    18     9    1
    13    10    11   ar
    14    10     1    1
    15    11     4    1
    16     2     1    2
    17    22    19    1
    18     1     3    2
    19     9    19    1
    20    20    19    1
    21    19    21    1
    22     4     5    1
