@<TRIPOS>MOLECULE
2-Hydroxy-6-[(m-tolyliminio)methyl]phenolate
 60 62 0 0 0
SMALL
GASTEIGER

@<TRIPOS>ATOM
      1 O          -0.2585    6.5794    6.3266 O.3     1  LIG1       -0.2832
      2 O          -2.2958    7.8573    5.0585 O.3     1  LIG1       -0.5032
      3 N           2.1096    5.6956    6.2947 N.2     1  LIG1       -0.2105
      4 C          -0.0288    7.0741    5.1400 C.ar    1  LIG1        0.2327
      5 C          -1.0723    7.7539    4.4422 C.ar    1  LIG1        0.1643
      6 C          -0.8749    8.2613    3.1866 C.ar    1  LIG1       -0.0163
      7 C           0.3881    8.1607    2.5619 C.ar    1  LIG1       -0.0573
      8 C           1.4302    7.5337    3.2042 C.ar    1  LIG1       -0.0450
      9 C           1.2377    6.9661    4.4856 C.ar    1  LIG1        0.0886
     10 C           2.3002    6.2720    5.1441 C.2     1  LIG1        0.1810
     11 C           3.0327    4.9291    7.0566 C.ar    1  LIG1        0.2063
     12 C           4.2936    4.5702    6.5869 C.ar    1  LIG1        0.0126
     13 C           5.1591    3.8235    7.3832 C.ar    1  LIG1       -0.0442
     14 C           4.7263    3.4359    8.6564 C.ar    1  LIG1       -0.0584
     15 C           3.4639    3.7884    9.1145 C.ar    1  LIG1       -0.0553
     16 C           2.6155    4.5383    8.3172 C.ar    1  LIG1        0.0097
     17 C           6.5353    3.4389    6.8976 C.3     1  LIG1       -0.0395
     18 H           1.1803    5.9115    6.5914 H       1  LIG1        0.4529
     19 H          -2.2649    7.6023    5.9323 H       1  LIG1        0.2923
     20 H          -1.5932    8.6845    2.7313 H       1  LIG1        0.0655
     21 H           0.5178    8.5275    1.6953 H       1  LIG1        0.0619
     22 H           2.2819    7.4817    2.7862 H       1  LIG1        0.0627
     23 H           3.1570    6.2311    4.7359 H       1  LIG1        0.1383
     24 H           4.5653    4.8366    5.7165 H       1  LIG1        0.0686
     25 H           5.3022    2.9257    9.2133 H       1  LIG1        0.0620
     26 H           3.1812    3.5139    9.9789 H       1  LIG1        0.0620
     27 H           1.7534    4.7825    8.6329 H       1  LIG1        0.0683
     28 H           6.6452    3.7251    5.9666 H       1  LIG1        0.0278
     29 H           6.6424    2.4665    6.9551 H       1  LIG1        0.0278
     30 H           7.2127    3.8756    7.4554 H       1  LIG1        0.0278
     31 O           7.9255    1.6042    0.2088 O.3     2  LIG2       -0.2832
     32 O           8.8043   -0.4318    1.8353 O.3     2  LIG2       -0.5032
     33 N           7.3733    4.0782   -0.0723 N.2     2  LIG2       -0.2105
     34 C           8.3393    1.8967    1.4184 C.ar    2  LIG2        0.2327
     35 C           8.8045    0.8576    2.2823 C.ar    2  LIG2        0.1643
     36 C           9.2576    1.1477    3.5426 C.ar    2  LIG2       -0.0163
     37 C           9.2665    2.4702    4.0237 C.ar    2  LIG2       -0.0573
     38 C           8.8190    3.4905    3.2287 C.ar    2  LIG2       -0.0450
     39 C           8.3622    3.2275    1.9207 C.ar    2  LIG2        0.0886
     40 C           7.8521    4.2896    1.1170 C.2     2  LIG2        0.1810
     41 C           6.7520    5.0246   -0.9286 C.ar    2  LIG2        0.2063
     42 C           6.7928    6.4003   -0.6980 C.ar    2  LIG2        0.0126
     43 C           6.1461    7.2823   -1.5596 C.ar    2  LIG2       -0.0442
     44 C           5.4684    6.7623   -2.6642 C.ar    2  LIG2       -0.0584
     45 C           5.4116    5.3918   -2.8881 C.ar    2  LIG2       -0.0553
     46 C           6.0517    4.5191   -2.0247 C.ar    2  LIG2        0.0097
     47 C           6.1447    8.7632   -1.2800 C.3     2  LIG2       -0.0395
     48 H           7.3920    3.2501   -0.3464 H       2  LIG2        0.4529
     49 H           8.4488   -0.4633    1.0826 H       2  LIG2        0.2923
     50 H           9.5709    0.4452    4.1001 H       2  LIG2        0.0655
     51 H           9.5823    2.6546    4.9004 H       2  LIG2        0.0619
     52 H           8.8166    4.3810    3.5598 H       2  LIG2        0.0627
     53 H           7.8619    5.1754    1.4606 H       2  LIG2        0.1383
     54 H           7.2665    6.7382    0.0532 H       2  LIG2        0.0686
     55 H           5.0395    7.3536   -3.2716 H       2  LIG2        0.0620
     56 H           4.9318    5.0529   -3.6350 H       2  LIG2        0.0620
     57 H           6.0151    3.5826   -2.1777 H       2  LIG2        0.0683
     58 H           5.2865    9.0198   -0.8819 H       2  LIG2        0.0278
     59 H           6.2753    9.2540   -2.1181 H       2  LIG2        0.0278
     60 H           6.8706    8.9789   -0.6584 H       2  LIG2        0.0278
@<TRIPOS>BOND
     1    56    45    1
     2    55    44    1
     3    45    44   ar
     4    45    46   ar
     5    44    43   ar
     6    57    46    1
     7    59    47    1
     8    46    41   ar
     9    43    47    1
    10    43    42   ar
    11    47    58    1
    12    47    60    1
    13    41    42   ar
    14    41    33    1
    15    42    54    1
    16    48    33    1
    17    33    40    2
    18    31    34    1
    19    49    32    1
    20    40    53    1
    21    40    39    1
    22    34    39   ar
    23    34    35   ar
    24    21     7    1
    25    32    35    1
    26    39    38   ar
    27    35    36   ar
    28     7     6   ar
    29     7     8   ar
    30    20     6    1
    31    22     8    1
    32     6     5   ar
    33     8     9   ar
    34    38    52    1
    35    38    37   ar
    36    36    37   ar
    37    36    50    1
    38    37    51    1
    39     5     2    1
    40     5     4   ar
    41     9     4   ar
    42     9    10    1
    43    23    10    1
    44     2    19    1
    45     4     1    1
    46    10     3    2
    47    24    12    1
    48    28    17    1
    49     3    18    1
    50     3    11    1
    51    12    11   ar
    52    12    13   ar
    53    17    29    1
    54    17    13    1
    55    17    30    1
    56    11    16   ar
    57    13    14   ar
    58    16    27    1
    59    16    15   ar
    60    14    15   ar
    61    14    25    1
    62    15    26    1
