@<TRIPOS>MOLECULE
(8aS)-8,8a-Dihydrofuro[3,2-f]indolizine-6,9(4H,7H)-dione
 23 25 0 0 0
SMALL
GASTEIGER

@<TRIPOS>ATOM
      1 C           9.8975    2.5486   14.7092 C.ar    1  LIG1        0.0930
      2 H          10.7070    2.1356   14.5114 H       1  LIG1        0.1029
      3 C           8.9017    1.9638   15.4027 C.ar    1  LIG1       -0.0185
      4 H           8.8976    1.1054   15.7594 H       1  LIG1        0.0652
      5 C           6.4954    2.8713   16.0643 C.3     1  LIG1        0.0441
      6 H           5.9480    2.2446   15.5662 H       1  LIG1        0.0515
      7 H           6.5436    2.5681   16.9843 H       1  LIG1        0.0515
      8 C           5.0884    4.6784   16.9625 C.2     1  LIG1        0.2165
      9 C           4.6840    6.0733   16.5738 C.3     1  LIG1        0.0263
     10 H           4.8545    6.6935   17.2999 H       1  LIG1        0.0359
     11 H           3.7405    6.1058   16.3515 H       1  LIG1        0.0359
     12 C           5.5175    6.4170   15.3830 C.3     1  LIG1       -0.0187
     13 H           6.2265    7.0306   15.6300 H       1  LIG1        0.0292
     14 H           4.9728    6.8307   14.6958 H       1  LIG1        0.0292
     15 C           7.5531    5.1867   14.4612 C.2     1  LIG1        0.2184
     16 C           7.8633    2.9255   15.4782 C.ar    1  LIG1        0.0185
     17 C           8.3062    4.0193   14.8179 C.ar    1  LIG1        0.1764
     18 C           6.1007    5.0972   14.8826 C.3     1  LIG1        0.0927
     19 H           5.5684    4.7810   14.1232 H       1  LIG1        0.0584
     20 N           5.9026    4.1904   16.0122 N.am    1  LIG1       -0.2867
     21 O           9.5757    3.8135   14.3348 O.2     1  LIG1       -0.4596
     22 O           7.9678    6.1282   13.8126 O.2     1  LIG1       -0.2868
     23 O           4.7507    4.0749   17.9687 O.2     1  LIG1       -0.2756
@<TRIPOS>BOND
     1    22    15    2
     2    19    18    1
     3    21     1   ar
     4    21    17   ar
     5    15    17    1
     6    15    18    1
     7     2     1    1
     8    14    12    1
     9     1     3   ar
    10    17    16   ar
    11    18    12    1
    12    18    20    1
    13    12    13    1
    14    12     9    1
    15     3    16   ar
    16     3     4    1
    17    16     5    1
    18     6     5    1
    19    20     5    1
    20    20     8   am
    21     5     7    1
    22    11     9    1
    23     9     8    1
    24     9    10    1
    25     8    23    2
