@<TRIPOS>MOLECULE
3-Chloro-1,1,1-trifluoro-3-(triphenylphosphoranylidene)propan-2-one
 42 44 0 0 0
SMALL
GASTEIGER

@<TRIPOS>ATOM
      1 CL          8.4712    4.2882   -1.2190 Cl      1  LIG1       -0.0588
      2 P           8.2126    3.7372    1.7344 P.3     1  LIG1        0.1478
      3 F           9.1561   -0.0943   -1.3677 F       1  LIG1       -0.1632
      4 F           9.8566    1.7556   -2.1350 F       1  LIG1       -0.1632
      5 F           7.7993    1.2981   -2.1693 F       1  LIG1       -0.1632
      6 O           8.7674    1.0196    0.9297 O.2     1  LIG1       -0.2817
      7 C           9.6708    3.7214    2.7917 C.ar    1  LIG1        0.1086
      8 C          10.7410    2.9088    2.4895 C.ar    1  LIG1       -0.0187
      9 H          10.7139    2.3615    1.7377 H       1  LIG1        0.0657
     10 C          11.8557    2.9098    3.3070 C.ar    1  LIG1       -0.0580
     11 H          12.5784    2.3615    3.1027 H       1  LIG1        0.0619
     12 C          11.9031    3.7124    4.4141 C.ar    1  LIG1       -0.0615
     13 H          12.6582    3.7075    4.9574 H       1  LIG1        0.0618
     14 C          10.8455    4.5229    4.7272 C.ar    1  LIG1       -0.0580
     15 H          10.8799    5.0613    5.4855 H       1  LIG1        0.0619
     16 C           9.7239    4.5417    3.9164 C.ar    1  LIG1       -0.0187
     17 H           9.0087    5.0997    4.1223 H       1  LIG1        0.0657
     18 C           6.9116    2.7476    2.4940 C.ar    1  LIG1        0.1086
     19 C           6.9828    2.3201    3.8058 C.ar    1  LIG1       -0.0187
     20 H           7.7141    2.5489    4.3325 H       1  LIG1        0.0657
     21 C           5.9612    1.5510    4.3310 C.ar    1  LIG1       -0.0580
     22 H           6.0088    1.2651    5.2150 H       1  LIG1        0.0619
     23 C           4.8829    1.2049    3.5663 C.ar    1  LIG1       -0.0615
     24 H           4.1996    0.6892    3.9305 H       1  LIG1        0.0618
     25 C           4.8094    1.6200    2.2638 C.ar    1  LIG1       -0.0580
     26 H           4.0777    1.3814    1.7414 H       1  LIG1        0.0619
     27 C           5.8157    2.3901    1.7268 C.ar    1  LIG1       -0.0187
     28 H           5.7592    2.6721    0.8424 H       1  LIG1        0.0657
     29 C           7.6693    5.4495    1.6519 C.ar    1  LIG1        0.1086
     30 C           6.3565    5.8166    1.8792 C.ar    1  LIG1       -0.0187
     31 H           5.7230    5.1737    2.1050 H       1  LIG1        0.0657
     32 C           5.9907    7.1507    1.7683 C.ar    1  LIG1       -0.0580
     33 H           5.1082    7.4021    1.9241 H       1  LIG1        0.0619
     34 C           6.9191    8.0993    1.4298 C.ar    1  LIG1       -0.0615
     35 H           6.6627    8.9896    1.3504 H       1  LIG1        0.0618
     36 C           8.2224    7.7453    1.2075 C.ar    1  LIG1       -0.0580
     37 H           8.8487    8.3931    0.9794 H       1  LIG1        0.0619
     38 C           8.6039    6.4265    1.3213 C.ar    1  LIG1       -0.0187
     39 H           9.4916    6.1873    1.1768 H       1  LIG1        0.0657
     40 C           8.5124    3.1691    0.1056 C.3     1  LIG1        0.2939
     41 C           8.7214    1.8077   -0.0320 C.2     1  LIG1        0.3005
     42 C           8.8948    1.1970   -1.4273 C.3     1  LIG1        0.4565
@<TRIPOS>BOND
     1     5    42    1
     2     4    42    1
     3    42     3    1
     4    42    41    1
     5     1    40    1
     6    41    40    1
     7    41     6    2
     8    40     2    1
     9    28    27    1
    10    37    36    1
    11    39    38    1
    12    36    38   ar
    13    36    34   ar
    14    38    29   ar
    15    35    34    1
    16    34    32   ar
    17    29     2    1
    18    29    30   ar
    19    27    25   ar
    20    27    18   ar
    21     2    18    1
    22     2     7    1
    23     9     8    1
    24    26    25    1
    25    32    30   ar
    26    32    33    1
    27    30    31    1
    28    25    23   ar
    29     8     7   ar
    30     8    10   ar
    31    18    19   ar
    32     7    16   ar
    33    11    10    1
    34    10    12   ar
    35    23    24    1
    36    23    21   ar
    37    19    21   ar
    38    19    20    1
    39    16    17    1
    40    16    14   ar
    41    21    22    1
    42    12    14   ar
    43    12    13    1
    44    14    15    1
