@<TRIPOS>MOLECULE
1-[(6-Chloropyridin-3-yl)methyl]-3-phenylimidazolidine-2,4-dione
 33 35 0 0 0
SMALL
GASTEIGER

@<TRIPOS>ATOM
      1 C           1.0548    3.3089   28.5736 C.ar    1  LIG1        0.1292
      2 C           0.8279    4.6528   28.7519 C.ar    1  LIG1       -0.0245
      3 H           0.6578    5.0062   29.5940 H       1  LIG1        0.0648
      4 C           0.8627    5.4520   27.6369 C.ar    1  LIG1       -0.0528
      5 H           0.7372    6.3703   27.7166 H       1  LIG1        0.0622
      6 C           1.0852    4.8846   26.3967 C.ar    1  LIG1       -0.0119
      7 C           1.2346    3.5122   26.3491 C.ar    1  LIG1        0.0339
      8 H           1.3381    3.1158   25.5153 H       1  LIG1        0.0833
      9 C           1.2112    5.7053   25.1324 C.3     1  LIG1        0.0432
     10 H           0.7536    5.2500   24.4090 H       1  LIG1        0.0515
     11 H           0.7805    6.5647   25.2631 H       1  LIG1        0.0515
     12 C           3.4759    6.8674   25.4159 C.3     1  LIG1        0.0938
     13 H           3.4058    6.7971   26.3809 H       1  LIG1        0.0561
     14 H           3.2641    7.7755   25.1485 H       1  LIG1        0.0561
     15 C           4.8504    6.4678   24.9407 C.2     1  LIG1        0.2448
     16 C           3.3087    4.9998   24.0722 C.2     1  LIG1        0.3163
     17 C           5.6930    4.7256   23.3548 C.ar    1  LIG1        0.0454
     18 C           6.1234    3.4723   23.7494 C.ar    1  LIG1       -0.0398
     19 H           5.7644    3.0632   24.5036 H       1  LIG1        0.0636
     20 C           7.0998    2.8371   22.9976 C.ar    1  LIG1       -0.0600
     21 H           7.3991    1.9936   23.2510 H       1  LIG1        0.0618
     22 C           7.6304    3.4400   21.8850 C.ar    1  LIG1       -0.0616
     23 H           8.2876    3.0050   21.3908 H       1  LIG1        0.0618
     24 C           7.1922    4.6844   21.4971 C.ar    1  LIG1       -0.0600
     25 H           7.5526    5.0904   20.7430 H       1  LIG1        0.0618
     26 C           6.2122    5.3336   22.2346 C.ar    1  LIG1       -0.0398
     27 H           5.9078    6.1727   21.9727 H       1  LIG1        0.0636
     28 CL          1.0890    2.2661   29.9769 Cl      1  LIG1       -0.0620
     29 N           1.2387    2.7181   27.4191 N.ar    1  LIG1       -0.2432
     30 N           2.6092    5.9181   24.7615 N.am    1  LIG1       -0.2717
     31 N           4.6633    5.3893   24.1066 N.am    1  LIG1       -0.1928
     32 O           2.9013    4.0119   23.5124 O.2     1  LIG1       -0.2516
     33 O           5.9020    6.9732   25.2330 O.2     1  LIG1       -0.2731
@<TRIPOS>BOND
     1    25    24    1
     2    23    22    1
     3    24    22   ar
     4    24    26   ar
     5    22    20   ar
     6    27    26    1
     7    26    17   ar
     8    20    21    1
     9    20    18   ar
    10    17    18   ar
    11    17    31    1
    12    32    16    2
    13    18    19    1
    14    16    31   am
    15    16    30   am
    16    31    15   am
    17    10     9    1
    18    30     9    1
    19    30    12    1
    20    15    33    2
    21    15    12    1
    22     9    11    1
    23     9     6    1
    24    14    12    1
    25    12    13    1
    26     8     7    1
    27     7     6   ar
    28     7    29   ar
    29     6     4   ar
    30    29     1   ar
    31     4     5    1
    32     4     2   ar
    33     1     2   ar
    34     1    28    1
    35     2     3    1
