@<TRIPOS>MOLECULE
(3a<i>R</i>,3b<i>S</i>,11a<i>S</i>,R~S~)-3a,3b,4,5,11,11a-hexahydro-10- {[[(1<i>S</i>,2<i>R</i>,4<i>R</i>)-2-hydroxy-7,7-dimethylbicyclo[2.2.1] hept-1-yl]methyl]sulfinyl}-7-methoxy-2-phenyl-1<i>H</i>-naphth[2,1-<i>e</i>] isoindole-1,3(2<i>H</i>)-dione
 77 83 0 0 0
SMALL
GASTEIGER

@<TRIPOS>ATOM
      1 S           8.8416    2.9624   12.3935 S.3     1  LIG1       -0.0149
      2 N          12.3115    1.8271   16.2216 N.am    1  LIG1       -0.2099
      3 O          10.5250    3.2359   16.5959 O.2     1  LIG1       -0.2745
      4 O           9.0885    4.3373   12.9802 O.3     1  LIG1       -0.1573
      5 O          13.6397    0.0749   15.5523 O.2     1  LIG1       -0.2745
      6 O           6.5449    5.4706   12.9565 O.3     1  LIG1       -0.3912
      7 O          13.1594    1.9878    7.9157 O.3     1  LIG1       -0.4951
      8 C          10.9584    2.1725   16.2214 C.2     1  LIG1        0.2304
      9 C          12.5475    0.5767   15.6455 C.2     1  LIG1        0.2306
     10 C          11.2205   -0.0050   15.1933 C.3     1  LIG1        0.0547
     11 H          11.0887   -0.8843   15.6521 H       1  LIG1        0.0408
     12 C          11.0878   -0.2277   13.6631 C.3     1  LIG1       -0.0024
     13 H          10.2926   -0.8236   13.5531 H       1  LIG1        0.0357
     14 C          12.2494   -0.9913   13.0344 C.3     1  LIG1       -0.0414
     15 H          12.2970   -1.9034   13.4166 H       1  LIG1        0.0274
     16 H          13.1014   -0.5281   13.2328 H       1  LIG1        0.0274
     17 C          12.0440   -1.0734   11.5232 C.3     1  LIG1       -0.0264
     18 H          12.7690   -1.6094   11.1146 H       1  LIG1        0.0314
     19 H          11.1817   -1.5180   11.3264 H       1  LIG1        0.0314
     20 C          12.0464    0.3140   10.9400 C.ar    1  LIG1       -0.0365
     21 C          12.6073    0.5731    9.6929 C.ar    1  LIG1       -0.0162
     22 H          12.9968   -0.1392    9.1977 H       1  LIG1        0.0657
     23 C          12.6072    1.8513    9.1612 C.ar    1  LIG1        0.1204
     24 C          12.0959    2.9119    9.9066 C.ar    1  LIG1       -0.0194
     25 H          12.1198    3.7969    9.5618 H       1  LIG1        0.0654
     26 C          11.5515    2.6607   11.1576 C.ar    1  LIG1       -0.0506
     27 H          11.2338    3.3879   11.6783 H       1  LIG1        0.0625
     28 C          11.4595    1.3660   11.6695 C.ar    1  LIG1       -0.0174
     29 C          10.7317    1.0563   12.9170 C.2     1  LIG1       -0.0253
     30 C           9.6671    1.7371   13.4005 C.2     1  LIG1        0.0088
     31 C           9.0807    1.3789   14.7364 C.3     1  LIG1       -0.0082
     32 H           8.4476    0.6259   14.6263 H       1  LIG1        0.0326
     33 H           8.5764    2.1525   15.0919 H       1  LIG1        0.0326
     34 C          10.1722    0.9828   15.7307 C.3     1  LIG1        0.0526
     35 H           9.7285    0.5603   16.5204 H       1  LIG1        0.0405
     36 C          13.3517    3.3116    7.4227 C.3     1  LIG1        0.0788
     37 H          12.4889    3.7762    7.3893 H       1  LIG1        0.0660
     38 H          13.7363    3.2723    6.5227 H       1  LIG1        0.0660
     39 H          13.9612    3.7962    8.0177 H       1  LIG1        0.0660
     40 C          13.3406    2.5750   16.9010 C.ar    1  LIG1        0.0439
     41 C          13.6661    3.8511   16.4973 C.ar    1  LIG1       -0.0398
     42 H          13.2111    4.2558   15.7677 H       1  LIG1        0.0636
     43 C          14.6687    4.5391   17.1704 C.ar    1  LIG1       -0.0600
     44 H          14.9001    5.4198   16.9020 H       1  LIG1        0.0618
     45 C          15.3327    3.9453   18.2318 C.ar    1  LIG1       -0.0616
     46 H          16.0300    4.4128   18.6772 H       1  LIG1        0.0618
     47 C          14.9815    2.6742   18.6413 C.ar    1  LIG1       -0.0600
     48 H          15.4297    2.2746   19.3774 H       1  LIG1        0.0618
     49 C          13.9782    1.9769   17.9832 C.ar    1  LIG1       -0.0398
     50 H          13.7310    1.1048   18.2675 H       1  LIG1        0.0636
     51 C           6.1431    3.2159   11.8853 C.3     1  LIG1        0.0127
     52 C           6.2483    4.7625   11.7520 C.3     1  LIG1        0.0624
     53 H           6.9300    4.9902   11.0568 H       1  LIG1        0.0599
     54 C           4.8393    5.1650   11.2406 C.3     1  LIG1       -0.0229
     55 H           4.3551    5.7053   11.9146 H       1  LIG1        0.0293
     56 H           4.8985    5.6782   10.3968 H       1  LIG1        0.0293
     57 C           4.1497    3.8097   11.0186 C.3     1  LIG1       -0.0329
     58 H           3.1556    3.8640   10.9307 H       1  LIG1        0.0307
     59 C           4.8551    3.1389    9.8209 C.3     1  LIG1       -0.0490
     60 H           4.9788    3.7769    9.0734 H       1  LIG1        0.0268
     61 H           4.3446    2.3545    9.4970 H       1  LIG1        0.0268
     62 C           6.2222    2.7106   10.4292 C.3     1  LIG1       -0.0434
     63 H           6.3321    1.7272   10.4003 H       1  LIG1        0.0272
     64 H           6.9750    3.1339    9.9452 H       1  LIG1        0.0272
     65 C           4.6348    2.9818   12.2250 C.3     1  LIG1       -0.0232
     66 C           4.1856    3.5364   13.5775 C.3     1  LIG1       -0.0589
     67 H           4.5082    4.4563   13.6774 H       1  LIG1        0.0235
     68 H           4.5538    2.9818   14.2972 H       1  LIG1        0.0235
     69 H           3.2067    3.5257   13.6267 H       1  LIG1        0.0235
     70 C           4.2040    1.5116   12.1588 C.3     1  LIG1       -0.0589
     71 H           3.2299    1.4517   12.2489 H       1  LIG1        0.0235
     72 H           4.6309    1.0127   12.8862 H       1  LIG1        0.0235
     73 H           4.4763    1.1298   11.2984 H       1  LIG1        0.0235
     74 C           7.1281    2.5586   12.8375 C.3     1  LIG1        0.0243
     75 H           7.0044    1.5766   12.8109 H       1  LIG1        0.0400
     76 H           6.9471    2.8655   13.7615 H       1  LIG1        0.0400
     77 H           7.3498    5.2600   13.1120 H       1  LIG1        0.2098
@<TRIPOS>BOND
     1    38    36    1
     2    37    36    1
     3    36     7    1
     4    36    39    1
     5     7    23    1
     6    60    59    1
     7    23    21   ar
     8    23    24   ar
     9    22    21    1
    10    61    59    1
    11    25    24    1
    12    21    20   ar
    13    59    62    1
    14    59    57    1
    15    24    26   ar
    16    64    62    1
    17    56    54    1
    18    63    62    1
    19    62    51    1
    20    58    57    1
    21    20    17    1
    22    20    28   ar
    23    57    54    1
    24    57    65    1
    25    53    52    1
    26    18    17    1
    27    26    28   ar
    28    26    27    1
    29    54    52    1
    30    54    55    1
    31    73    70    1
    32    19    17    1
    33    17    14    1
    34    28    29    1
    35    52    51    1
    36    52     6    1
    37    51    65    1
    38    51    74    1
    39    70    65    1
    40    70    71    1
    41    70    72    1
    42    65    66    1
    43     1    74    1
    44     1     4    1
    45     1    30    1
    46    75    74    1
    47    74    76    1
    48    29    30    2
    49    29    12    1
    50     6    77    1
    51    14    16    1
    52    14    15    1
    53    14    12    1
    54    30    31    1
    55    13    12    1
    56    66    69    1
    57    66    67    1
    58    66    68    1
    59    12    10    1
    60    32    31    1
    61    31    33    1
    62    31    34    1
    63    10     9    1
    64    10    11    1
    65    10    34    1
    66     5     9    2
    67     9     2   am
    68    34     8    1
    69    34    35    1
    70    42    41    1
    71     8     2   am
    72     8     3    2
    73     2    40    1
    74    41    40   ar
    75    41    43   ar
    76    40    49   ar
    77    44    43    1
    78    43    45   ar
    79    49    50    1
    80    49    47   ar
    81    45    47   ar
    82    45    46    1
    83    47    48    1
