@<TRIPOS>MOLECULE
(Z)-(2-Aminothiazol-1-ium-4-yl)-2-(tert-butoxycarbonylmethoxyimino)acetate monohydrate
 38 37 0 0 0
SMALL
GASTEIGER

@<TRIPOS>ATOM
      1 N           8.3226    3.9580    5.2295 N.2     1  LIG1       -0.0750
      2 N           6.6212   -0.0835    7.6184 N.pl3   1  LIG1       -0.3390
      3 H           6.3964    0.5171    8.2065 H       1  LIG1        0.1441
      4 H           6.4241   -0.9201    7.7544 H       1  LIG1        0.1441
      5 C           8.2733    1.6388    4.9988 C.ar    1  LIG1        0.0837
      6 C           8.6444    2.9581    4.4990 C.2     1  LIG1        0.2139
      7 C           7.2587    0.2725    6.5254 C.ar    1  LIG1        0.1339
      8 C           8.4407    0.4529    4.3841 C.ar    1  LIG1        0.0046
      9 H           8.8716    0.3443    3.5552 H       1  LIG1        0.0716
     10 C           9.2989    3.0564    3.1198 C.2     1  LIG1        0.4097
     11 C           7.9396    6.2197    5.1585 C.3     1  LIG1        0.2139
     12 H           8.3748    7.0820    4.9966 H       1  LIG1        0.0843
     13 H           7.8473    6.1032    6.1275 H       1  LIG1        0.0843
     14 C           6.5646    6.2182    4.5160 C.2     1  LIG1        0.3483
     15 C           4.4253    7.4590    4.5658 C.3     1  LIG1        0.1053
     16 C           3.5020    6.2657    4.6360 C.3     1  LIG1       -0.0254
     17 H           3.8164    5.5771    4.0292 H       1  LIG1        0.0268
     18 H           2.6051    6.5355    4.3821 H       1  LIG1        0.0268
     19 H           3.4916    5.9180    5.5414 H       1  LIG1        0.0268
     20 C           4.5709    7.9671    3.1529 C.3     1  LIG1       -0.0254
     21 H           4.8566    7.2411    2.5762 H       1  LIG1        0.0268
     22 H           5.2322    8.6761    3.1314 H       1  LIG1        0.0268
     23 H           3.7187    8.3103    2.8428 H       1  LIG1        0.0268
     24 C           3.9739    8.5632    5.4989 C.3     1  LIG1       -0.0254
     25 H           3.8871    8.2109    6.3980 H       1  LIG1        0.0268
     26 H           3.1172    8.9064    5.2014 H       1  LIG1        0.0268
     27 H           4.6280    9.2789    5.4938 H       1  LIG1        0.0268
     28 O           5.7743    7.1024    5.1285 O.3     1  LIG1       -0.4565
     29 O           8.7460    5.1740    4.6293 O.2     1  LIG1       -0.3816
     30 O          10.5222    3.2643    3.0764 O.co2   1  LIG1       -0.2387
     31 N           7.6076    1.5256    6.2221 N.ar    1  LIG1       -0.3357
     32 H           7.5676    2.1653    6.8257 H       1  LIG1        0.1676
     33 O           8.5054    2.9107    2.1694 O.co2   1  LIG1       -0.2387
     34 O           6.2600    5.5286    3.5825 O.2     1  LIG1       -0.2469
     35 S           7.7638   -0.8518    5.3074 S.2     1  LIG1       -0.0623
     36 O           6.4490    8.4682    7.6944 O.3     2  HOH2       -0.4105
     37 H           6.9713    8.1737    8.3598 H       0  HOH0        0.2052
     38 H           6.2835    7.9479    7.0975 H       0  HOH0        0.2052
@<TRIPOS>BOND
     1    33    10   ar
     2    21    20    1
     3    23    20    1
     4    30    10   ar
     5    10     6    1
     6    22    20    1
     7    20    15    1
     8     9     8    1
     9    34    14    2
    10    17    16    1
    11    18    16    1
    12     8     5   ar
    13     8    35   ar
    14     6     5    1
    15     6     1    2
    16    14    28    1
    17    14    11    1
    18    15    16    1
    19    15    28    1
    20    15    24    1
    21    29    11    1
    22    29     1    1
    23    16    19    1
    24    12    11    1
    25     5    31   ar
    26    11    13    1
    27    26    24    1
    28    35     7   ar
    29    27    24    1
    30    24    25    1
    31    31     7   ar
    32    31    32    1
    33     7     2    1
    34    38    36    1
    35     2     4    1
    36     2     3    1
    37    36    37    1
