@<TRIPOS>MOLECULE
1-[2-(4-Chlorophenyl)acetyl]-4-(2-methoxyphenyl)thiosemicarbazide
 39 40 0 0 0
SMALL
GASTEIGER

@<TRIPOS>ATOM
      1 S           2.2272    0.5631    3.3688 S.2     1  LIG1       -0.0171
      2 CL         -2.7513    7.9498   -1.8505 Cl      1  LIG1       -0.0835
      3 O           0.0105    1.5694   -0.3943 O.2     1  LIG1       -0.2739
      4 O          -0.1091    5.1127    2.2962 O.3     1  LIG1       -0.4933
      5 N           0.7544    2.7692    2.8156 N.am    1  LIG1       -0.2929
      6 C           1.5146    3.8250    3.3624 C.ar    1  LIG1        0.0749
      7 N          -0.0842    0.7531    2.1971 N.am    1  LIG1       -0.2456
      8 N          -1.1281    1.3960    1.5410 N.am    1  LIG1       -0.2349
      9 C           2.6678    3.7056    4.1200 C.ar    1  LIG1       -0.0369
     10 H           3.0335    2.8662    4.2851 H       1  LIG1        0.0637
     11 C           0.9970    5.1047    3.1066 C.ar    1  LIG1        0.1412
     12 C          -1.0395    1.6644    0.2127 C.2     1  LIG1        0.2334
     13 C           0.9306    1.4492    2.7670 C.2     1  LIG1        0.1511
     14 C          -2.3325    2.1196   -0.4145 C.3     1  LIG1        0.0505
     15 H          -3.0656    1.8905    0.1784 H       1  LIG1        0.0407
     16 H          -2.4634    1.6376   -1.2455 H       1  LIG1        0.0407
     17 C          -3.4760    4.3514   -0.2987 C.ar    1  LIG1       -0.0567
     18 H          -4.1434    3.9489    0.2087 H       1  LIG1        0.0621
     19 C          -2.3799    3.6054   -0.6978 C.ar    1  LIG1       -0.0385
     20 C          -1.4847    5.5757   -1.7620 C.ar    1  LIG1       -0.0431
     21 H          -0.8070    5.9921   -2.2435 H       1  LIG1        0.0632
     22 C          -3.5933    5.6833   -0.6431 C.ar    1  LIG1       -0.0431
     23 H          -4.3412    6.1703   -0.3821 H       1  LIG1        0.0632
     24 C          -0.6918    6.3688    1.9589 C.3     1  LIG1        0.0789
     25 H          -0.9465    6.8287    2.7619 H       1  LIG1        0.0660
     26 H          -1.4681    6.2246    1.4121 H       1  LIG1        0.0660
     27 H          -0.0535    6.8983    1.4744 H       1  LIG1        0.0660
     28 C           3.2726    4.8398    4.6283 C.ar    1  LIG1       -0.0598
     29 H           4.0559    4.7584    5.1232 H       1  LIG1        0.0618
     30 C          -1.3829    4.2417   -1.4284 C.ar    1  LIG1       -0.0567
     31 H          -0.6344    3.7589   -1.6965 H       1  LIG1        0.0621
     32 C           1.5933    6.2190    3.6502 C.ar    1  LIG1       -0.0181
     33 H           1.2305    7.0629    3.5041 H       1  LIG1        0.0655
     34 C          -2.5954    6.2828   -1.3756 C.ar    1  LIG1        0.0410
     35 C           2.7387    6.0746    4.4157 C.ar    1  LIG1       -0.0582
     36 H           3.1450    6.8236    4.7866 H       1  LIG1        0.0619
     37 H           0.0384   -0.0645    1.9423 H       1  LIG1        0.1718
     38 H          -1.8897    1.3220    1.9372 H       1  LIG1        0.1728
     39 H           0.0674    3.0291    2.4741 H       1  LIG1        0.1540
@<TRIPOS>BOND
     1    21    20    1
     2     2    34    1
     3    20    30   ar
     4    20    34   ar
     5    31    30    1
     6    30    19   ar
     7    34    22   ar
     8    16    14    1
     9    19    14    1
    10    19    17   ar
    11    22    23    1
    12    22    17   ar
    13    14    15    1
    14    14    12    1
    15     3    12    2
    16    17    18    1
    17    12     8   am
    18    26    24    1
    19    27    24    1
    20     8    38    1
    21     8     7    1
    22    37     7    1
    23    24     4    1
    24    24    25    1
    25     7    13    1
    26     4    11    1
    27    39     5    1
    28    13     5    1
    29    13     1    2
    30     5     6    1
    31    11     6   ar
    32    11    32   ar
    33     6     9   ar
    34    33    32    1
    35    32    35   ar
    36     9    10    1
    37     9    28   ar
    38    35    28   ar
    39    35    36    1
    40    28    29    1
