@<TRIPOS>MOLECULE
4-amino-2,2,6,6-tetramethylpiperidine 1-oxyl
 31 31 0 0 0
SMALL
GASTEIGER

@<TRIPOS>ATOM
      1 O           2.2674    2.5992    3.3707 O.3     1  LIG1       -0.1183
      2 N           1.3811    1.6866    3.5659 N.4     1  LIG1       -0.1429
      3 N          -1.7026   -1.1807    4.2906 N.3     1  LIG1       -0.3271
      4 H          -1.1508   -1.9314    4.3028 H       1  LIG1        0.1185
      5 H          -2.2349   -1.2803    3.6361 H       1  LIG1        0.1185
      6 C           0.7956    1.6265    4.9436 C.3     1  LIG1        0.0463
      7 C           0.0067    0.3346    5.1066 C.3     1  LIG1       -0.0173
      8 H          -0.5046    0.3824    5.9344 H       1  LIG1        0.0299
      9 H           0.6337   -0.4289    5.1956 H       1  LIG1        0.0299
     10 C          -0.9230    0.0158    3.9564 C.3     1  LIG1        0.0083
     11 H          -1.5709    0.7622    3.8301 H       1  LIG1        0.0459
     12 C          -0.0700   -0.1138    2.7024 C.3     1  LIG1       -0.0173
     13 H          -0.6379   -0.3850    1.9005 H       1  LIG1        0.0299
     14 H           0.5816   -0.8759    2.8307 H       1  LIG1        0.0299
     15 C           0.7170    1.1464    2.3434 C.3     1  LIG1        0.0463
     16 C           1.9491    1.6491    5.9346 C.3     1  LIG1       -0.0445
     17 H           2.4386    2.5179    5.8623 H       1  LIG1        0.0248
     18 H           2.5889    0.8694    5.7501 H       1  LIG1        0.0248
     19 H           1.5791    1.5477    6.8618 H       1  LIG1        0.0248
     20 C          -0.0989    2.8504    5.1681 C.3     1  LIG1       -0.0445
     21 H          -0.3995    2.8784    6.1132 H       1  LIG1        0.0248
     22 H          -0.9362    2.8564    4.6231 H       1  LIG1        0.0248
     23 H           0.4230    3.6548    4.9890 H       1  LIG1        0.0248
     24 C          -0.1891    2.2293    1.7554 C.3     1  LIG1       -0.0445
     25 H          -1.0007    2.4055    2.3164 H       1  LIG1        0.0248
     26 H          -0.4883    1.9081    0.8567 H       1  LIG1        0.0248
     27 H           0.2932    3.0373    1.6662 H       1  LIG1        0.0248
     28 C           1.8187    0.7987    1.3433 C.3     1  LIG1       -0.0445
     29 H           2.4690    0.1408    1.7494 H       1  LIG1        0.0248
     30 H           1.3917    0.3514    0.5794 H       1  LIG1        0.0248
     31 H           2.2857    1.5813    1.0605 H       1  LIG1        0.0248
@<TRIPOS>BOND
     1    30    28    1
     2    26    24    1
     3    31    28    1
     4    28    29    1
     5    28    15    1
     6    27    24    1
     7    24    25    1
     8    24    15    1
     9    13    12    1
    10    15    12    1
    11    15     2    1
    12    12    14    1
    13    12    10    1
    14     1     2    1
    15     2     6    1
    16     5     3    1
    17    11    10    1
    18    10     3    1
    19    10     7    1
    20     3     4    1
    21    22    20    1
    22     6     7    1
    23     6    20    1
    24     6    16    1
    25    23    20    1
    26     7     9    1
    27     7     8    1
    28    20    21    1
    29    18    16    1
    30    17    16    1
    31    16    19    1
