@<TRIPOS>MOLECULE
?
 82 82 0 0 0
SMALL
GASTEIGER

@<TRIPOS>ATOM
      1 O           7.2640    4.7954    5.2521 O.3     1  LIG1       -0.4802
      2 O           4.2930    3.8245    1.6946 O.3     1  LIG1       -0.5065
      3 H           3.8453    3.5361    2.3171 H       1  LIG1        0.2921
      4 O           8.0590    6.4268    0.7931 O.3     1  LIG1       -0.5058
      5 H           8.7271    6.7341    1.1561 H       1  LIG1        0.2922
      6 O           9.6945    6.9735    2.7909 O.2     1  LIG1       -0.2889
      7 O          10.5168    6.4647    5.3709 O.3     1  LIG1       -0.3798
      8 H          10.6986    7.2634    5.3415 H       1  LIG1        0.2105
      9 O          11.2298    3.3070    9.4519 O.3     1  LIG1       -0.5032
     10 H          11.5572    2.7824    8.9137 H       1  LIG1        0.2923
     11 O           9.4745    4.5339   11.1244 O.3     1  LIG1       -0.5009
     12 H          10.0522    3.9825   11.3080 H       1  LIG1        0.2924
     13 O           7.2466    5.7537   10.1454 O.3     1  LIG1       -0.5032
     14 H           7.4718    5.5965   10.9170 H       1  LIG1        0.2923
     15 O          15.7107    3.3987    7.7829 O.3     2  LIG2       -0.4802
     16 O          18.5233    4.6990   11.3686 O.3     2  LIG2       -0.5065
     17 H          18.8978    5.0846   10.7505 H       2  LIG2        0.2921
     18 O          14.9662    1.7507   12.2378 O.3     2  LIG2       -0.5058
     19 H          14.3607    1.3628   11.8439 H       2  LIG2        0.2922
     20 O          13.4914    0.9954   10.2045 O.2     2  LIG2       -0.2889
     21 O          12.5476    1.5958    7.6970 O.3     2  LIG2       -0.3798
     22 H          12.3622    0.8066    7.8155 H       2  LIG2        0.2105
     23 O          15.6738    2.1078    2.9068 O.3     2  LIG2       -0.5032
     24 H          15.4433    2.2152    2.1264 H       2  LIG2        0.2923
     25 O          13.5504    3.5014    1.8718 O.3     2  LIG2       -0.5009
     26 H          12.8759    3.9280    1.6847 H       2  LIG2        0.2924
     27 O          11.8802    4.9100    3.5751 O.3     2  LIG2       -0.5032
     28 H          11.6055    5.4424    4.1346 H       2  LIG2        0.2923
     29 C           6.9188    4.9503    3.9321 C.ar    1  LIG1        0.1391
     30 C           5.7379    4.3751    3.5295 C.ar    1  LIG1        0.0225
     31 H           5.1794    3.9548    4.1419 H       1  LIG1        0.0691
     32 C           5.3983    4.4375    2.1795 C.ar    1  LIG1        0.1238
     33 C           6.1749    5.1217    1.2679 C.ar    1  LIG1        0.0222
     34 H           5.9211    5.1699    0.3741 H       1  LIG1        0.0691
     35 C           7.3314    5.7332    1.6999 C.ar    1  LIG1        0.1344
     36 C           7.7386    5.6660    3.0509 C.ar    1  LIG1        0.1033
     37 C           8.9180    6.3478    3.5213 C.2     1  LIG1        0.2024
     38 C           9.1457    6.2775    5.0332 C.3     1  LIG1        0.1585
     39 H           8.6153    6.9790    5.4645 H       1  LIG1        0.0718
     40 C           8.6777    4.9179    5.5490 C.3     1  LIG1        0.1583
     41 H           9.1696    4.2092    5.0832 H       1  LIG1        0.0815
     42 C           8.8342    4.7370    7.0344 C.ar    1  LIG1        0.0027
     43 C           9.9345    4.0259    7.5183 C.ar    1  LIG1       -0.0095
     44 H          10.5137    3.6057    6.9248 H       1  LIG1        0.0659
     45 C          10.1600    3.9461    8.8753 C.ar    1  LIG1        0.1623
     46 C           9.2778    4.5553    9.7698 C.ar    1  LIG1        0.2006
     47 C           8.1562    5.1999    9.2820 C.ar    1  LIG1        0.1623
     48 C           7.9372    5.3050    7.9190 C.ar    1  LIG1       -0.0095
     49 H           7.1881    5.7553    7.6006 H       1  LIG1        0.0659
     50 C          16.0315    3.3220    9.1169 C.ar    2  LIG2        0.1391
     51 C          17.1330    4.0275    9.5376 C.ar    2  LIG2        0.0225
     52 H          17.6435    4.5173    8.9330 H       2  LIG2        0.0691
     53 C          17.4680    3.9912   10.8883 C.ar    2  LIG2        0.1238
     54 C          16.7372    3.2446   11.8077 C.ar    2  LIG2        0.0222
     55 H          16.9692    3.2430   12.7080 H       2  LIG2        0.0691
     56 C          15.6677    2.5099   11.3575 C.ar    2  LIG2        0.1344
     57 C          15.2688    2.5399    9.9914 C.ar    2  LIG2        0.1033
     58 C          14.1751    1.7373    9.4978 C.2     2  LIG2        0.2024
     59 C          13.9239    1.8107    7.9970 C.3     2  LIG2        0.1585
     60 H          14.4628    1.1266    7.5475 H       2  LIG2        0.0718
     61 C          14.3199    3.1806    7.4737 C.3     2  LIG2        0.1583
     62 H          13.7781    3.8656    7.9193 H       2  LIG2        0.0815
     63 C          14.1419    3.2968    5.9869 C.ar    2  LIG2        0.0027
     64 C          13.0995    4.0718    5.4817 C.ar    2  LIG2       -0.0095
     65 H          12.5438    4.5347    6.0656 H       2  LIG2        0.0659
     66 C          12.8837    4.1579    4.1168 C.ar    2  LIG2        0.1623
     67 C          13.7024    3.4642    3.2273 C.ar    2  LIG2        0.2006
     68 C          14.7751    2.7358    3.7429 C.ar    2  LIG2        0.1623
     69 C          14.9862    2.6395    5.1085 C.ar    2  LIG2       -0.0095
     70 H          15.6949    2.1331    5.4356 H       2  LIG2        0.0659
     71 O          10.9110    1.2269    5.1595 O.3     3  HOH3       -0.4105
     72 O          11.1701    4.5568    1.0000 O.3     4  HOH4       -0.4105
     73 O           2.8176    2.8480    3.7419 O.3     5  HOH5       -0.4105
     74 O           4.5128    6.2182    9.5502 O.3     6  HOH6       -0.4105
     75 H          11.6175    1.4931    5.5466 H       0  HOH0        0.2052
     76 H          10.7298    1.6353    4.4074 H       0  HOH0        0.2052
     77 H          11.1148    5.3484    1.3154 H       0  HOH0        0.2052
     78 H          11.1210    4.4952    0.1496 H       0  HOH0        0.2052
     79 H           2.0736    2.5202    3.4878 H       0  HOH0        0.2052
     80 H           3.2960    2.3464    4.2336 H       0  HOH0        0.2052
     81 H           5.3494    6.0516    9.6474 H       0  HOH0        0.2052
     82 H           4.2841    7.0075    9.8236 H       0  HOH0        0.2052
@<TRIPOS>BOND
     1    78    72    1
     2    34    33    1
     3     4     5    1
     4     4    35    1
     5    72    77    1
     6    33    35   ar
     7    33    32   ar
     8    26    25    1
     9     2    32    1
    10     2     3    1
    11    35    36   ar
    12    25    67    1
    13    24    23    1
    14    32    30   ar
    15     6    37    2
    16    23    68    1
    17    36    37    1
    18    36    29   ar
    19    67    68   ar
    20    67    66   ar
    21    79    73    1
    22    37    38    1
    23    30    29   ar
    24    30    31    1
    25    27    66    1
    26    27    28    1
    27    73    80    1
    28    68    69   ar
    29    29     1    1
    30    66    64   ar
    31    76    71    1
    32    38     7    1
    33    38    39    1
    34    38    40    1
    35    41    40    1
    36    69    70    1
    37    69    63   ar
    38    71    75    1
    39     1    40    1
    40     8     7    1
    41    64    63   ar
    42    64    65    1
    43    40    42    1
    44    63    61    1
    45    44    43    1
    46    42    43   ar
    47    42    48   ar
    48    61    15    1
    49    61    62    1
    50    61    59    1
    51    43    45   ar
    52    60    59    1
    53    49    48    1
    54    21    22    1
    55    21    59    1
    56    15    50    1
    57    48    47   ar
    58    59    58    1
    59    45     9    1
    60    45    46   ar
    61    10     9    1
    62    52    51    1
    63    50    51   ar
    64    50    57   ar
    65    47    46   ar
    66    47    13    1
    67    58    57    1
    68    58    20    2
    69    51    53   ar
    70    74    81    1
    71    74    82    1
    72    46    11    1
    73    57    56   ar
    74    13    14    1
    75    17    16    1
    76    53    16    1
    77    53    54   ar
    78    11    12    1
    79    56    54   ar
    80    56    18    1
    81    54    55    1
    82    19    18    1
