@<TRIPOS>MOLECULE
3-Amino-6-chloropyridazine
 12 12 0 0 0
SMALL
GASTEIGER

@<TRIPOS>ATOM
      1 CL          1.2500    1.4988    5.1203 Cl      1  LIG1       -0.0601
      2 N           0.1076    3.8288    5.0091 N.ar    1  LIG1       -0.1359
      3 C          -0.5422    5.1267    6.8313 C.ar    1  LIG1        0.1387
      4 N          -1.0756    6.2757    7.2870 N.pl3   1  LIG1       -0.3417
      5 H          -1.3415    6.8760    6.7319 H       1  LIG1        0.1438
      6 H          -1.1503    6.4088    8.1337 H       1  LIG1        0.1438
      7 C           0.4612    3.0025    7.2327 C.ar    1  LIG1       -0.0198
      8 H           0.7699    2.3192    7.7830 H       1  LIG1        0.0649
      9 C          -0.0886    4.1318    7.7376 C.ar    1  LIG1       -0.0174
     10 H          -0.1674    4.2530    8.6561 H       1  LIG1        0.0653
     11 C           0.5412    2.9175    5.8309 C.ar    1  LIG1        0.1516
     12 N          -0.4465    4.9639    5.4990 N.ar    1  LIG1       -0.1332
@<TRIPOS>BOND
     1     2    12   ar
     2     2    11   ar
     3     1    11    1
     4    12     3   ar
     5    11     7   ar
     6     5     4    1
     7     3     4    1
     8     3     9   ar
     9     7     9   ar
    10     7     8    1
    11     4     6    1
    12     9    10    1
