@<TRIPOS>MOLECULE
(4R,5S)-Methyl 1,3-dibenzyl-5-[(R)-2-(hydroxydiphenylmethyl)pyrrolidine-1-carbonyl]- 2-oxoimidazolidine-4-carboxylate
 82 87 0 0 0
SMALL
GASTEIGER

@<TRIPOS>ATOM
      1 O           0.2712    4.6976   -0.2470 O.2     1  LIG1       -0.2524
      2 O          -3.3274    6.0676    2.3504 O.2     1  LIG1       -0.2487
      3 O          -2.6320    7.9774    3.2706 O.3     1  LIG1       -0.4666
      4 O          -0.3163    5.9426    3.9176 O.2     1  LIG1       -0.2735
      5 O           1.8920    6.1254    5.5668 O.3     1  LIG1       -0.3774
      6 H           1.2009    5.8352    5.2207 H       1  LIG1        0.2112
      7 N           0.6750    6.3108    1.3367 N.am    1  LIG1       -0.2672
      8 C          -0.0911    5.6367    0.4520 C.2     1  LIG1        0.3068
      9 N          -1.3214    6.1886    0.4440 N.am    1  LIG1       -0.2654
     10 C          -1.4615    7.2630    1.3922 C.3     1  LIG1        0.1516
     11 H          -1.6539    8.0930    0.9088 H       1  LIG1        0.0641
     12 C          -0.0433    7.3622    2.0323 C.3     1  LIG1        0.1329
     13 H           0.3586    8.2359    1.8454 H       1  LIG1        0.0622
     14 C           2.0100    5.9072    1.6859 C.3     1  LIG1        0.0420
     15 H           2.1572    5.0107    1.3451 H       1  LIG1        0.0514
     16 H           2.0735    5.8636    2.6526 H       1  LIG1        0.0514
     17 C           3.1215    6.8016    1.1734 C.ar    1  LIG1       -0.0300
     18 C           4.4017    6.5071    1.5855 C.ar    1  LIG1       -0.0571
     19 H           4.5468    5.8211    2.1958 H       1  LIG1        0.0621
     20 C           5.4729    7.2302    1.0937 C.ar    1  LIG1       -0.0615
     21 H           6.3324    7.0568    1.4006 H       1  LIG1        0.0618
     22 C           5.2639    8.1966    0.1595 C.ar    1  LIG1       -0.0617
     23 H           5.9934    8.6514   -0.1946 H       1  LIG1        0.0618
     24 C           3.9987    8.5162   -0.2731 C.ar    1  LIG1       -0.0615
     25 H           3.8595    9.1891   -0.9003 H       1  LIG1        0.0618
     26 C           2.9289    7.7952    0.2598 C.ar    1  LIG1       -0.0571
     27 H           2.0641    7.9981   -0.0145 H       1  LIG1        0.0621
     28 C          -2.2770    5.9258   -0.6127 C.3     1  LIG1        0.0421
     29 H          -3.1712    6.0032   -0.2441 H       1  LIG1        0.0514
     30 H          -2.1628    5.0096   -0.9100 H       1  LIG1        0.0514
     31 C          -2.1781    6.8289   -1.8103 C.ar    1  LIG1       -0.0300
     32 C          -1.0809    7.5891   -2.1016 C.ar    1  LIG1       -0.0571
     33 H          -0.3550    7.5836   -1.5215 H       1  LIG1        0.0621
     34 C          -1.0336    8.3679   -3.2472 C.ar    1  LIG1       -0.0615
     35 H          -0.2873    8.8925   -3.4273 H       1  LIG1        0.0618
     36 C          -2.0901    8.3559   -4.1041 C.ar    1  LIG1       -0.0617
     37 H          -2.0685    8.8750   -4.8763 H       1  LIG1        0.0618
     38 C          -3.1621    7.5989   -3.8358 C.ar    1  LIG1       -0.0615
     39 H          -3.8783    7.5891   -4.4279 H       1  LIG1        0.0618
     40 C          -3.2107    6.8420   -2.7022 C.ar    1  LIG1       -0.0571
     41 H          -3.9630    6.3239   -2.5342 H       1  LIG1        0.0621
     42 C          -2.5797    6.9968    2.3928 C.2     1  LIG1        0.3300
     43 C          -3.6384    7.8956    4.3022 C.3     1  LIG1        0.0817
     44 H          -3.3770    7.2390    4.9524 H       1  LIG1        0.0661
     45 H          -4.4774    7.6425    3.9119 H       1  LIG1        0.0661
     46 H          -3.7282    8.7496    4.7301 H       1  LIG1        0.0661
     47 C          -0.0388    7.0776    3.5324 C.2     1  LIG1        0.2389
     48 N           0.3119    8.0614    4.3629 N.am    1  LIG1       -0.2934
     49 C           0.2203    7.8607    5.8201 C.3     1  LIG1        0.0631
     50 H          -0.5199    7.2433    6.0002 H       1  LIG1        0.0536
     51 C          -0.1744    9.2437    6.3228 C.3     1  LIG1       -0.0295
     52 H           0.1919    9.4040    7.2075 H       1  LIG1        0.0285
     53 H          -1.1390    9.3309    6.3639 H       1  LIG1        0.0285
     54 C           0.4134   10.2231    5.3113 C.3     1  LIG1       -0.0353
     55 H          -0.1286   11.0248    5.2570 H       1  LIG1        0.0281
     56 H           1.3167   10.4729    5.5627 H       1  LIG1        0.0281
     57 C           0.4119    9.4891    3.9953 C.3     1  LIG1        0.0152
     58 H          -0.3443    9.7596    3.4515 H       1  LIG1        0.0465
     59 H           1.2295    9.6625    3.5034 H       1  LIG1        0.0465
     60 C           1.5242    7.2379    6.3845 C.3     1  LIG1        0.1342
     61 C           2.6579    8.2370    6.3192 C.ar    1  LIG1       -0.0099
     62 C           3.4672    8.2926    5.2038 C.ar    1  LIG1       -0.0555
     63 H           3.3452    7.6873    4.5089 H       1  LIG1        0.0621
     64 C           4.4703    9.2600    5.1216 C.ar    1  LIG1       -0.0614
     65 H           5.0166    9.2982    4.3699 H       1  LIG1        0.0618
     66 C           4.6501   10.1446    6.1343 C.ar    1  LIG1       -0.0617
     67 H           5.3337   10.7718    6.0799 H       1  LIG1        0.0618
     68 C           3.8252   10.1250    7.2498 C.ar    1  LIG1       -0.0614
     69 H           3.9218   10.7619    7.9205 H       1  LIG1        0.0618
     70 C           2.8597    9.1477    7.3489 C.ar    1  LIG1       -0.0555
     71 H           2.3358    9.0964    8.1150 H       1  LIG1        0.0621
     72 C           1.3566    6.6729    7.7972 C.ar    1  LIG1       -0.0099
     73 C           0.1443    6.5518    8.4558 C.ar    1  LIG1       -0.0555
     74 H          -0.6240    6.9270    8.0921 H       1  LIG1        0.0621
     75 C           0.0835    5.8647    9.6680 C.ar    1  LIG1       -0.0614
     76 H          -0.7352    5.7774   10.0994 H       1  LIG1        0.0618
     77 C           1.1852    5.3237   10.2287 C.ar    1  LIG1       -0.0617
     78 H           1.1201    4.8580   11.0311 H       1  LIG1        0.0618
     79 C           2.4083    5.4655    9.6063 C.ar    1  LIG1       -0.0614
     80 H           3.1773    5.1099    9.9906 H       1  LIG1        0.0618
     81 C           2.4761    6.1374    8.4135 C.ar    1  LIG1       -0.0555
     82 H           3.3041    6.2366    8.0014 H       1  LIG1        0.0621
@<TRIPOS>BOND
     1    37    36    1
     2    39    38    1
     3    36    38   ar
     4    36    34   ar
     5    38    40   ar
     6    35    34    1
     7    34    32   ar
     8    40    41    1
     9    40    31   ar
    10    32    31   ar
    11    32    33    1
    12    31    28    1
    13    30    28    1
    14    25    24    1
    15    28    29    1
    16    28     9    1
    17    24    22   ar
    18    24    26   ar
    19     1     8    2
    20    23    22    1
    21    27    26    1
    22    22    20   ar
    23    26    17   ar
    24     9     8   am
    25     9    10    1
    26     8     7   am
    27    11    10    1
    28    20    21    1
    29    20    18   ar
    30    17    18   ar
    31    17    14    1
    32     7    14    1
    33     7    12    1
    34    15    14    1
    35    10    12    1
    36    10    42    1
    37    18    19    1
    38    14    16    1
    39    13    12    1
    40    12    47    1
    41     2    42    2
    42    42     3    1
    43     3    43    1
    44    58    57    1
    45    59    57    1
    46    47     4    2
    47    47    48   am
    48    45    43    1
    49    57    48    1
    50    57    54    1
    51    43    46    1
    52    43    44    1
    53    48    49    1
    54    65    64    1
    55    63    62    1
    56    64    62   ar
    57    64    66   ar
    58    62    61   ar
    59     6     5    1
    60    55    54    1
    61    54    56    1
    62    54    51    1
    63     5    60    1
    64    49    50    1
    65    49    51    1
    66    49    60    1
    67    67    66    1
    68    66    68   ar
    69    61    60    1
    70    61    70   ar
    71    51    53    1
    72    51    52    1
    73    60    72    1
    74    68    70   ar
    75    68    69    1
    76    70    71    1
    77    72    81   ar
    78    72    73   ar
    79    82    81    1
    80    74    73    1
    81    81    79   ar
    82    73    75   ar
    83    79    80    1
    84    79    77   ar
    85    75    76    1
    86    75    77   ar
    87    77    78    1
