@<TRIPOS>MOLECULE
(RS,RS)-5-[Hydroxy(4-methylphenyl)methyl]furan-2(5<i>H</i>)-one
 27 28 0 0 0
SMALL
GASTEIGER

@<TRIPOS>ATOM
      1 O           4.4919    3.2988   12.5409 O.2     1  LIG1       -0.2456
      2 C           3.4656    3.0284   11.9623 C.2     1  LIG1        0.3324
      3 O           3.4937    2.6056   10.6739 O.3     1  LIG1       -0.4511
      4 C           2.0693    3.0647   12.4089 C.2     1  LIG1        0.0221
      5 H           1.7689    3.3297   13.2703 H       1  LIG1        0.0687
      6 C           1.2967    2.6657   11.4070 C.2     1  LIG1       -0.0344
      7 H           0.3491    2.6043   11.4360 H       1  LIG1        0.0612
      8 C           2.1437    2.3280   10.2273 C.3     1  LIG1        0.1519
      9 H           1.9123    2.9343    9.4670 H       1  LIG1        0.0809
     10 C           2.0593    0.8624    9.7606 C.3     1  LIG1        0.1206
     11 H           1.1294    0.6861    9.4393 H       1  LIG1        0.0684
     12 O           2.3346   -0.0174   10.8381 O.3     1  LIG1       -0.3832
     13 H           1.6593   -0.0709   11.3345 H       1  LIG1        0.2104
     14 C           3.0278    0.5568    8.6243 C.ar    1  LIG1       -0.0153
     15 C           3.7205   -0.6563    8.5891 C.ar    1  LIG1       -0.0557
     16 H           3.6286   -1.2715    9.3064 H       1  LIG1        0.0621
     17 C           4.5440   -0.9713    7.5128 C.ar    1  LIG1       -0.0585
     18 H           4.9976   -1.8063    7.5053 H       1  LIG1        0.0620
     19 C           4.0455    1.1268    6.4966 C.ar    1  LIG1       -0.0585
     20 H           4.1586    1.7509    5.7891 H       1  LIG1        0.0620
     21 C           3.2092    1.4442    7.5647 C.ar    1  LIG1       -0.0557
     22 H           2.7558    2.2792    7.5717 H       1  LIG1        0.0621
     23 C           4.7193   -0.0947    6.4490 C.ar    1  LIG1       -0.0504
     24 C           5.6033   -0.4574    5.2808 C.3     1  LIG1       -0.0397
     25 H           5.1455   -1.1155    4.7169 H       1  LIG1        0.0278
     26 H           6.4432   -0.8391    5.6119 H       1  LIG1        0.0278
     27 H           5.7957    0.3466    4.7538 H       1  LIG1        0.0278
@<TRIPOS>BOND
     1    25    24    1
     2    27    24    1
     3    24    26    1
     4    24    23    1
     5    20    19    1
     6    23    19   ar
     7    23    17   ar
     8    19    21   ar
     9    18    17    1
    10    17    15   ar
    11    21    22    1
    12    21    14   ar
    13    15    14   ar
    14    15    16    1
    15    14    10    1
    16    11    10    1
    17     9     8    1
    18    10     8    1
    19    10    12    1
    20     8     3    1
    21     8     6    1
    22     3     2    1
    23    12    13    1
    24     6     7    1
    25     6     4    2
    26     2     4    1
    27     2     1    2
    28     4     5    1
