@<TRIPOS>MOLECULE
Bis(adeninium) chloranilate dihydrate
 25 24 0 0 0
SMALL
GASTEIGER

@<TRIPOS>ATOM
      1 CL          0.3788    3.0566   11.8244 Cl      1  LIG1       -0.0980
      2 O           1.6415    2.4940    9.1770 O.2     1  LIG1       -0.2865
      3 O          -2.3318    4.0778   11.1499 O.2     1  LIG1       -0.2865
      4 O           3.1363    1.4671   11.2683 O.3     2  HOH2       -0.4105
      5 N           3.4635    1.5568    7.2814 N.pl3   3  LIG3       -0.1946
      6 N           4.0772    1.1486    5.0179 N.2     3  LIG3       -0.2177
      7 N           6.3210    0.1874    4.8816 N.pl3   3  LIG3       -0.3025
      8 N           6.8158    0.0673    7.0781 N.2     3  LIG3       -0.2329
      9 N           4.7871    0.9773    9.1424 N.pl3   3  LIG3       -0.2496
     10 C           0.4951    2.9996    9.1238 C.2     1  LIG1        0.2313
     11 C          -0.2912    3.3235   10.2382 C.3     1  LIG1        0.2083
     12 C          -1.5948    3.8423   10.1666 C.2     1  LIG1        0.2313
     13 C           4.6008    1.0340    7.8407 C.2     3  LIG3        0.2848
     14 C           3.2473    1.5793    5.9335 C.2     3  LIG3        0.1720
     15 C           5.2302    0.6629    5.5493 C.3     3  LIG3        0.2265
     16 C           7.2356   -0.1541    5.8453 C.2     3  LIG3        0.0841
     17 C           5.5456    0.5842    6.8963 C.2     3  LIG3        0.1765
     18 H           2.8290    1.9223    7.7942 H       3  LIG3        0.2991
     19 H           2.4273    1.9509    5.6703 H       3  LIG3        0.1285
     20 H           6.3778    0.0786    3.9866 H       3  LIG3        0.1497
     21 H           8.1062   -0.5074    5.6077 H       3  LIG3        0.0998
     22 H           5.5339    0.6074    9.4422 H       3  LIG3        0.2882
     23 H           4.1817    1.3006    9.7231 H       3  LIG3        0.2882
     24 H           2.5364    1.8723   10.8271 H       0  HOH0        0.2052
     25 H           3.1229    1.8294   12.1333 H       0  HOH0        0.2052
@<TRIPOS>BOND
     1    20     7    1
     2     7    15    1
     3     7    16    1
     4     6    15    1
     5     6    14    2
     6    15    17    1
     7    21    16    1
     8    19    14    1
     9    16     8    2
    10    14     5    1
    11    17     8    1
    12    17    13    2
    13     5    18    1
    14     5    13    1
    15    13     9    1
    16    10     2    2
    17    10    11    1
    18     9    22    1
    19     9    23    1
    20    12    11    1
    21    12     3    2
    22    11     1    1
    23    24     4    1
    24     4    25    1
