@<TRIPOS>MOLECULE
picolinic acid hydrochloride
 16 15 0 0 0
SMALL
GASTEIGER

@<TRIPOS>ATOM
      1 CL          1.7211    1.6317    6.7660 Cl      1  LIG1        0.0000
      2 CA          4.9867    1.6317    2.7607 C.2     1  LYS1        0.1126
      3 CB          4.3085    1.6317    1.5705 C.2     1  LYS1       -0.0481
      4 HB          3.3587    1.6317    1.5581 H       1  LYS1        0.0599
      5 CG          5.0272    1.6317    0.3822 C.3     1  LYS1        0.0087
      6 HG          4.5706    1.6317   -0.4511 H       1  LYS1        0.0395
      7 CD          6.4097    1.6317    0.4170 C.2     1  LYS1       -0.0624
      8 HD          6.9131    1.6317   -0.3891 H       1  LYS1        0.0591
      9 CE          7.0446    1.6317    1.6410 C.2     1  LYS1       -0.0094
     10 HE          7.9941    1.6317    1.6844 H       1  LYS1        0.0778
     11 N           6.3266    1.6317    2.7618 N.pl3   1  LYS1       -0.3155
     12 H           6.7339    1.6317    3.4728 H       1  LYS1        0.1518
     13 C           4.3587    1.6317    4.1177 C.2     1  LYS1        0.3508
     14 O           3.0476    1.6317    4.0772 O.3     1  LYS1       -0.4763
     15 H           2.8127    1.6317    4.8681 H       1  LYS1        0.2954
     16 OXT         5.0398    1.6317    5.1057 O.2     1  LYS1       -0.2437
@<TRIPOS>BOND
     1     6     5    1
     2     8     7    1
     3     5     7    1
     4     5     3    1
     5     7     9    2
     6     4     3    1
     7     3     2    2
     8     9    10    1
     9     9    11    1
    10     2    11    1
    11     2    13    1
    12    11    12    1
    13    14    13    1
    14    14    15    1
    15    13    16    2
