@<TRIPOS>MOLECULE
2,3-Dibromo-3-(5-bromo-2-methoxyphenyl)-1-(2,4-dichlorophenyl)propan-1-one
 34 35 0 0 0
SMALL
GASTEIGER

@<TRIPOS>ATOM
      1 C           5.3638    0.6355    3.2063 C.2     1  LIG1        0.1793
      2 O           6.0377    0.6193    2.1989 O.2     1  LIG1       -0.2908
      3 C           5.9962    0.9312    4.5189 C.ar    1  LIG1        0.0369
      4 C           5.4734    1.7002    5.5494 C.ar    1  LIG1        0.0528
      5 CL          3.9161    2.4829    5.4106 Cl      1  LIG1       -0.0828
      6 C           6.1739    1.9627    6.7086 C.ar    1  LIG1       -0.0244
      7 H           5.8094    2.4972    7.3772 H       1  LIG1        0.0647
      8 C           7.4259    1.4104    6.8482 C.ar    1  LIG1        0.0424
      9 CL          8.3395    1.7444    8.2867 Cl      1  LIG1       -0.0835
     10 C           7.9804    0.6223    5.8745 C.ar    1  LIG1       -0.0426
     11 H           8.8232    0.2470    5.9925 H       1  LIG1        0.0632
     12 C           7.2651    0.3967    4.7183 C.ar    1  LIG1       -0.0484
     13 H           7.6421   -0.1298    4.0512 H       1  LIG1        0.0625
     14 C           3.9193    0.1600    3.1327 C.3     1  LIG1        0.0940
     15 H           3.3678    0.6422    3.7844 H       1  LIG1        0.0514
     16 BR          4.0186   -1.7867    3.6079 Br      1  LIG1       -0.0781
     17 C           3.3017    0.2315    1.7833 C.3     1  LIG1        0.0627
     18 H           3.9012   -0.1887    1.1301 H       1  LIG1        0.0483
     19 BR          3.2246    2.2176    1.4345 Br      1  LIG1       -0.0813
     20 C           1.9224   -0.3701    1.6545 C.ar    1  LIG1        0.0103
     21 C           0.9389   -0.0752    2.5776 C.ar    1  LIG1       -0.0400
     22 H           1.1258    0.4815    3.2983 H       1  LIG1        0.0633
     23 C          -0.3286   -0.6127    2.4243 C.ar    1  LIG1        0.0184
     24 BR         -1.6673   -0.2243    3.7113 Br      1  LIG1       -0.0503
     25 C          -0.6306   -1.4053    1.3509 C.ar    1  LIG1       -0.0443
     26 H          -1.4968   -1.7201    1.2298 H       1  LIG1        0.0630
     27 C           0.3536   -1.7326    0.4554 C.ar    1  LIG1       -0.0186
     28 H           0.1609   -2.2981   -0.2576 H       1  LIG1        0.0654
     29 C           1.6339   -1.2239    0.6088 C.ar    1  LIG1        0.1244
     30 O           2.6659   -1.4820   -0.2530 O.3     1  LIG1       -0.4948
     31 C           2.5058   -2.5068   -1.2497 C.3     1  LIG1        0.0788
     32 H           2.3139   -3.3436   -0.8204 H       1  LIG1        0.0660
     33 H           3.3155   -2.5864   -1.7588 H       1  LIG1        0.0660
     34 H           1.7805   -2.2738   -1.8339 H       1  LIG1        0.0660
@<TRIPOS>BOND
     1    34    31    1
     2    33    31    1
     3    31    32    1
     4    31    30    1
     5    28    27    1
     6    30    29    1
     7    27    29   ar
     8    27    25   ar
     9    29    20   ar
    10    18    17    1
    11    26    25    1
    12    25    23   ar
    13    19    17    1
    14    20    17    1
    15    20    21   ar
    16    17    14    1
    17     2     1    2
    18    23    21   ar
    19    23    24    1
    20    21    22    1
    21    14     1    1
    22    14    16    1
    23    14    15    1
    24     1     3    1
    25    13    12    1
    26     3    12   ar
    27     3     4   ar
    28    12    10   ar
    29     5     4    1
    30     4     6   ar
    31    10    11    1
    32    10     8   ar
    33     6     8   ar
    34     6     7    1
    35     8     9    1
