@<TRIPOS>MOLECULE
3\b,5\a,15\a-Trihydroxy-5-androsten-17-one dihydrate
 57 58 0 0 0
SMALL
GASTEIGER

@<TRIPOS>ATOM
      1 O           5.4557   10.4629   24.0980 O.3     1  LIG1       -0.3915
      2 H           6.0289   11.0417   24.2570 H       1  LIG1        0.2098
      3 O           6.4025   12.0462   17.7349 O.3     1  LIG1       -0.3875
      4 H           6.3564   12.3457   16.9567 H       1  LIG1        0.2102
      5 O           5.4054   12.7029   15.2524 O.3     1  LIG1       -0.3911
      6 H           5.4830   13.1651   14.5547 H       1  LIG1        0.2098
      7 O           4.2487    8.5815   13.5366 O.2     1  LIG1       -0.2967
      8 O           0.3397    8.0681   25.1381 O.3     2  HOH2       -0.4105
      9 H           0.1638    8.8671   24.9014 H       0  HOH0        0.2052
     10 H           1.0068    8.2063   25.6299 H       0  HOH0        0.2052
     11 O           7.4809   12.0747   24.4875 O.3     3  HOH3       -0.4105
     12 H           8.0365   11.7037   24.9957 H       0  HOH0        0.2052
     13 H           7.6301   12.8591   24.4913 H       0  HOH0        0.2052
     14 C           4.3640    8.8816   20.8868 C.3     1  LIG1       -0.0413
     15 H           3.7617    8.1426   20.7113 H       1  LIG1        0.0274
     16 H           5.2489    8.6135   20.5941 H       1  LIG1        0.0274
     17 C           4.4052    9.1271   22.3922 C.3     1  LIG1       -0.0258
     18 H           3.5142    9.3280   22.7185 H       1  LIG1        0.0290
     19 H           4.7255    8.3325   22.8484 H       1  LIG1        0.0290
     20 C           5.3265   10.2844   22.6714 C.3     1  LIG1        0.0590
     21 H           6.2097   10.0849   22.2956 H       1  LIG1        0.0596
     22 C           4.7861   11.5299   22.0124 C.3     1  LIG1       -0.0050
     23 H           5.3866   12.2720   22.1861 H       1  LIG1        0.0335
     24 H           3.9224   11.7474   22.3975 H       1  LIG1        0.0335
     25 C           4.6381   11.3463   20.5136 C.2     1  LIG1       -0.0624
     26 C           5.1234   12.2544   19.6804 C.2     1  LIG1       -0.0558
     27 H           5.5473   12.9915   20.0567 H       1  LIG1        0.0597
     28 C           5.0475   12.1964   18.1924 C.3     1  LIG1        0.0771
     29 H           4.7042   13.0539   17.8661 H       1  LIG1        0.0641
     30 C           4.1232   11.0800   17.6857 C.3     1  LIG1       -0.0017
     31 H           3.1946   11.3864   17.7540 H       1  LIG1        0.0336
     32 C           4.2942    9.8226   18.5571 C.3     1  LIG1       -0.0261
     33 H           5.2525    9.6190   18.5538 H       1  LIG1        0.0313
     34 C           3.9133   10.0937   20.0437 C.3     1  LIG1       -0.0077
     35 C           3.5925    8.5809   17.9881 C.3     1  LIG1       -0.0482
     36 H           3.8557    7.8066   18.5080 H       1  LIG1        0.0269
     37 H           2.6336    8.6897   18.0877 H       1  LIG1        0.0269
     38 C           3.9115    8.3174   16.5117 C.3     1  LIG1       -0.0403
     39 H           4.8504    8.0914   16.4167 H       1  LIG1        0.0275
     40 H           3.3856    7.5668   16.1926 H       1  LIG1        0.0275
     41 C           3.5973    9.5496   15.6836 C.3     1  LIG1        0.0318
     42 C           4.4161   10.7355   16.2292 C.3     1  LIG1        0.0032
     43 H           5.3490   10.4346   16.2180 H       1  LIG1        0.0339
     44 C           4.3191   11.7989   15.1327 C.3     1  LIG1        0.0660
     45 H           3.4663   12.2783   15.1940 H       1  LIG1        0.0600
     46 C           4.3773   10.9690   13.8415 C.3     1  LIG1        0.0327
     47 H           3.7186   11.2853   13.2047 H       1  LIG1        0.0367
     48 H           5.2568   11.0304   13.4365 H       1  LIG1        0.0367
     49 C           4.0813    9.5516   14.2445 C.2     1  LIG1        0.1420
     50 C           2.0755    9.8201   15.6100 C.3     1  LIG1       -0.0525
     51 H           1.7456   10.0337   16.4855 H       1  LIG1        0.0239
     52 H           1.6273    9.0382   15.2807 H       1  LIG1        0.0239
     53 H           1.9100   10.5571   15.0183 H       1  LIG1        0.0239
     54 C           2.3958   10.3210   20.2271 C.3     1  LIG1       -0.0556
     55 H           2.0962   10.9942   19.6134 H       1  LIG1        0.0238
     56 H           2.2211   10.6070   21.1265 H       1  LIG1        0.0238
     57 H           1.9269    9.5003   20.0567 H       1  LIG1        0.0238
@<TRIPOS>BOND
     1    47    46    1
     2    48    46    1
     3     7    49    2
     4    46    49    1
     5    46    44    1
     6    49    41    1
     7     6     5    1
     8    53    50    1
     9    44    45    1
    10    44     5    1
    11    44    42    1
    12    52    50    1
    13    50    41    1
    14    50    51    1
    15    41    42    1
    16    41    38    1
    17    40    38    1
    18    43    42    1
    19    42    30    1
    20    39    38    1
    21    38    35    1
    22     4     3    1
    23    30    31    1
    24    30    28    1
    25    30    32    1
    26     3    28    1
    27    29    28    1
    28    35    37    1
    29    35    36    1
    30    35    32    1
    31    28    26    1
    32    33    32    1
    33    32    34    1
    34    55    54    1
    35    26    27    1
    36    26    25    2
    37    34    54    1
    38    34    25    1
    39    34    14    1
    40    57    54    1
    41    54    56    1
    42    25    22    1
    43    16    14    1
    44    15    14    1
    45    14    17    1
    46    22    23    1
    47    22    24    1
    48    22    20    1
    49    21    20    1
    50    17    20    1
    51    17    18    1
    52    17    19    1
    53    20     1    1
    54     1     2    1
    55    11    13    1
    56    11    12    1
    57     9     8    1
    58     8    10    1
