@<TRIPOS>MOLECULE
3,6-Diaminoacridinium perchlorate
 19 17 0 0 0
SMALL
GASTEIGER

@<TRIPOS>ATOM
      1 O          15.8435    3.6291    2.1722 O.3     1  HOH1        0.0000
      2 CL         14.7968    4.4288    1.6411 Cl      1  HOH1        0.1011
      3 O          14.2888    5.2331    2.6803 O.3     1  HOH1       -0.1011
      4 H           9.3836    0.1752    0.5777 H       2  LIG2        0.1423
      5 H          10.1333    1.4798    0.5645 H       2  LIG2        0.1423
      6 H          14.7968    1.4083    1.6411 H       2  LIG2        0.1699
      7 C          13.6066   -0.0934    1.4061 C.ar    2  LIG2        0.0495
      8 C          12.4416    0.6283    1.1685 C.ar    2  LIG2       -0.0184
      9 H          12.4638    1.5579    1.1586 H       2  LIG2        0.0655
     10 C          11.2445   -0.0412    0.9466 C.ar    2  LIG2        0.0264
     11 C          11.2298   -1.4633    0.9788 C.ar    2  LIG2       -0.0407
     12 H          10.4280   -1.9151    0.8475 H       2  LIG2        0.0636
     13 C          12.3567   -2.1668    1.1967 C.ar    2  LIG2       -0.0547
     14 H          12.3205   -3.0957    1.2026 H       2  LIG2        0.0622
     15 C          13.6058   -1.5155    1.4179 C.ar    2  LIG2       -0.0207
     16 C          14.7968   -2.1833    1.6411 C.3     2  LIG2        0.0008
     17 H          14.7968   -3.1132    1.6411 H       2  LIG2        0.0361
     18 N          14.7968    0.5493    1.6411 N.pl3   2  LIG2       -0.2662
     19 N          10.0926    0.6260    0.7162 N.pl3   2  LIG2       -0.3579
@<TRIPOS>BOND
     1     5    19    1
     2     4    19    1
     3    19    10    1
     4    12    11    1
     5    10    11   ar
     6    10     8   ar
     7    11    13   ar
     8     9     8    1
     9     8     7   ar
    10    13    14    1
    11    13    15   ar
    12     7    15   ar
    13     7    18    1
    14    15    16    1
    15     6    18    1
    16     2     3    1
    17    16    17    1
