@<TRIPOS>MOLECULE
4-Chloro-N-(3,4-methylenedioxybenzyl)aniline
 30 32 0 0 0
SMALL
GASTEIGER

@<TRIPOS>ATOM
      1 CL          5.4593   16.1056    6.6257 Cl      1  LIG1       -0.0835
      2 N           5.6704   10.5643    4.6176 N.pl3   1  LIG1       -0.3397
      3 H           6.0996    9.9793    5.0801 H       1  LIG1        0.1464
      4 O           4.8150    5.3242    4.4715 O.3     1  LIG1       -0.4526
      5 O           5.7675    4.6957    2.4813 O.3     1  LIG1       -0.4526
      6 C           5.0397   10.1598    3.3921 C.3     1  LIG1        0.0345
      7 H           5.3906   10.6931    2.6612 H       1  LIG1        0.0511
      8 H           4.0857   10.3264    3.4527 H       1  LIG1        0.0511
      9 C           5.2731    8.7028    3.1000 C.ar    1  LIG1       -0.0267
     10 C           4.8933    7.7427    4.0345 C.ar    1  LIG1       -0.0115
     11 H           4.5265    7.9876    4.8533 H       1  LIG1        0.0658
     12 C           5.0760    6.4494    3.7109 C.ar    1  LIG1        0.1665
     13 C           5.6414    6.0576    2.5163 C.ar    1  LIG1        0.1662
     14 C           6.0256    6.9701    1.5871 C.ar    1  LIG1       -0.0158
     15 H           6.3968    6.7126    0.7737 H       1  LIG1        0.0655
     16 C           5.8400    8.3067    1.9125 C.ar    1  LIG1       -0.0534
     17 H           6.1068    8.9576    1.3045 H       1  LIG1        0.0622
     18 C           5.0267    4.2380    3.5803 C.3     1  LIG1        0.2332
     19 H           5.5080    3.5270    4.0327 H       1  LIG1        0.1166
     20 H           4.1741    3.8853    3.2811 H       1  LIG1        0.1166
     21 C           5.6023   11.8716    5.0730 C.ar    1  LIG1        0.0275
     22 C           4.8440   12.8569    4.4169 C.ar    1  LIG1       -0.0395
     23 H           4.3699   12.6414    3.6462 H       1  LIG1        0.0636
     24 C           4.8048   14.1236    4.9079 C.ar    1  LIG1       -0.0416
     25 H           4.2930   14.7618    4.4662 H       1  LIG1        0.0633
     26 C           5.4877   14.4847    6.0194 C.ar    1  LIG1        0.0411
     27 C           6.2387   13.5217    6.7040 C.ar    1  LIG1       -0.0416
     28 H           6.6984   13.7415    7.4818 H       1  LIG1        0.0633
     29 C           6.2822   12.2453    6.2005 C.ar    1  LIG1       -0.0395
     30 H           6.7940   11.6084    6.6441 H       1  LIG1        0.0636
@<TRIPOS>BOND
     1    15    14    1
     2    17    16    1
     3    14    16   ar
     4    14    13   ar
     5    16     9   ar
     6     5    13    1
     7     5    18    1
     8    13    12   ar
     9     7     6    1
    10     9     6    1
    11     9    10   ar
    12    20    18    1
    13     6     8    1
    14     6     2    1
    15    18    19    1
    16    18     4    1
    17    23    22    1
    18    12    10   ar
    19    12     4    1
    20    10    11    1
    21    22    24   ar
    22    22    21   ar
    23    25    24    1
    24     2    21    1
    25     2     3    1
    26    24    26   ar
    27    21    29   ar
    28    26     1    1
    29    26    27   ar
    30    29    30    1
    31    29    27   ar
    32    27    28    1
