@<TRIPOS>MOLECULE
3-(6-Methyl-2-pyridylamino)isobenzofuran-1(3H)-one
 30 32 0 0 0
SMALL
GASTEIGER

@<TRIPOS>ATOM
      1 O          10.5454    1.5849    2.7376 O.2     1  LIG1       -0.2449
      2 O           9.2170    2.3168    4.3630 O.3     1  LIG1       -0.4349
      3 N           6.9482    2.4523    5.0871 N.pl3   1  LIG1       -0.2906
      4 N           7.6210    4.1232    6.5441 N.ar    1  LIG1       -0.2373
      5 C           9.7049    1.3536    3.5637 C.2     1  LIG1        0.3415
      6 C           9.0329    0.0971    3.8810 C.ar    1  LIG1        0.0673
      7 C           9.1940   -1.1746    3.3288 C.ar    1  LIG1       -0.0473
      8 C           8.4043   -2.1780    3.8181 C.ar    1  LIG1       -0.0610
      9 C           7.4768   -1.9353    4.7859 C.ar    1  LIG1       -0.0613
     10 C           7.2964   -0.6839    5.3271 C.ar    1  LIG1       -0.0527
     11 C           8.1052    0.3283    4.8583 C.ar    1  LIG1        0.0252
     12 C           8.1576    1.7662    5.2556 C.3     1  LIG1        0.1966
     13 C           6.7843    3.7456    5.5859 C.ar    1  LIG1        0.1218
     14 C           5.7742    4.5531    5.0955 C.ar    1  LIG1       -0.0218
     15 C           5.6573    5.8169    5.6021 C.ar    1  LIG1       -0.0568
     16 C           6.5118    6.2267    6.5991 C.ar    1  LIG1       -0.0405
     17 C           7.4618    5.3620    7.0624 C.ar    1  LIG1        0.0403
     18 C           8.3810    5.6858    8.1958 C.3     1  LIG1       -0.0223
     19 H           6.5078    2.2474    4.3518 H       1  LIG1        0.1512
     20 H           9.8833   -1.2250    2.6771 H       1  LIG1        0.0626
     21 H           8.5756   -3.0288    3.4857 H       1  LIG1        0.0618
     22 H           6.9031   -2.7000    5.0879 H       1  LIG1        0.0618
     23 H           6.6091   -0.5022    6.0080 H       1  LIG1        0.0622
     24 H           8.4702    1.9366    6.1704 H       1  LIG1        0.1007
     25 H           5.2224    4.2516    4.4026 H       1  LIG1        0.0652
     26 H           4.9568    6.3999    5.2524 H       1  LIG1        0.0619
     27 H           6.4703    7.0957    6.9834 H       1  LIG1        0.0635
     28 H           8.0688    5.2920    9.0824 H       1  LIG1        0.0292
     29 H           8.4946    6.6454    8.3030 H       1  LIG1        0.0292
     30 H           9.2649    5.3348    8.0215 H       1  LIG1        0.0292
@<TRIPOS>BOND
     1    20     7    1
     2     1     5    2
     3     7     8   ar
     4     7     6   ar
     5    21     8    1
     6     5     6    1
     7     5     2    1
     8     8     9   ar
     9     6    11   ar
    10    19     3    1
    11     2    12    1
    12    25    14    1
    13     9    22    1
    14     9    10   ar
    15    11    12    1
    16    11    10   ar
    17     3    12    1
    18     3    13    1
    19    14    13   ar
    20    14    15   ar
    21    26    15    1
    22    12    24    1
    23    10    23    1
    24    13     4   ar
    25    15    16   ar
    26     4    17   ar
    27    16    27    1
    28    16    17   ar
    29    17    18    1
    30    30    18    1
    31    18    29    1
    32    18    28    1
