@<TRIPOS>MOLECULE
1-(4-Methoxybenzyl)pyridinium <i>p</i>-toluenesulfonate
 47 48 0 0 0
SMALL
GASTEIGER

@<TRIPOS>ATOM
      1 C           4.1596   11.9623    4.5101 C.3     1  LIG1        0.0412
      2 H           4.6608   11.1593    4.2973 H       1  LIG1        0.0517
      3 H           3.2162   11.7381    4.4955 H       1  LIG1        0.0517
      4 C          -0.1002   11.5938    6.4661 C.ar    2  LIG2        0.1196
      5 C           0.4104   12.3651    7.5060 C.ar    2  LIG2       -0.0341
      6 H           0.8107   13.1850    7.3269 H       2  LIG2        0.0637
      7 C           0.3187   11.9041    8.8135 C.ar    2  LIG2       -0.0570
      8 H           0.6666   12.4213    9.5037 H       2  LIG2        0.0621
      9 C          -0.2842   10.6818    9.1139 C.ar    2  LIG2       -0.0503
     10 C          -0.8031    9.9298    8.0577 C.ar    2  LIG2       -0.0570
     11 H          -1.2143    9.1155    8.2369 H       2  LIG2        0.0621
     12 C          -0.7166   10.3762    6.7414 C.ar    2  LIG2       -0.0341
     13 H          -1.0683    9.8631    6.0500 H       2  LIG2        0.0637
     14 C          -0.3650   10.2001   10.5391 C.3     2  LIG2       -0.0397
     15 H           0.4765   10.3494   10.9760 H       2  LIG2        0.0278
     16 H          -0.5683    9.2622   10.5492 H       2  LIG2        0.0278
     17 H          -1.0556   10.6810   11.0009 H       2  LIG2        0.0278
     18 C           4.5400   12.4386    5.8906 C.ar    1  LIG1       -0.0296
     19 C           5.6644   11.9215    6.5199 C.ar    1  LIG1       -0.0536
     20 H           6.2055   11.3161    6.0666 H       1  LIG1        0.0622
     21 C           5.9938   12.2977    7.8217 C.ar    1  LIG1       -0.0196
     22 H           6.7460   11.9431    8.2378 H       1  LIG1        0.0654
     23 C           5.1852   13.2081    8.4908 C.ar    1  LIG1        0.1201
     24 C           4.0583   13.7553    7.8608 C.ar    1  LIG1       -0.0196
     25 H           3.5266   14.3747    8.3069 H       1  LIG1        0.0654
     26 C           3.7423   13.3669    6.5697 C.ar    1  LIG1       -0.0536
     27 H           2.9940   13.7256    6.1505 H       1  LIG1        0.0622
     28 C           6.5330   13.0929   10.4577 C.3     1  LIG1        0.0788
     29 H           6.4186   12.1420   10.5317 H       1  LIG1        0.0660
     30 H           6.5905   13.4784   11.3356 H       1  LIG1        0.0660
     31 H           7.3390   13.2814    9.9720 H       1  LIG1        0.0660
     32 C           3.4242   13.7585    2.9942 C.2     1  LIG1       -0.0068
     33 H           2.5567   13.6191    3.2997 H       1  LIG1        0.0780
     34 C           3.6722   14.7286    2.0491 C.2     1  LIG1       -0.0623
     35 H           2.9724   15.2368    1.7084 H       1  LIG1        0.0591
     36 C           4.9699   14.9444    1.6060 C.3     1  LIG1        0.0078
     37 H           5.1478   15.5945    0.9662 H       1  LIG1        0.0395
     38 C           5.9981   14.1751    2.1319 C.2     1  LIG1       -0.0623
     39 H           6.8743   14.3104    1.8522 H       1  LIG1        0.0591
     40 C           5.7109   13.2111    3.0695 C.2     1  LIG1       -0.0068
     41 H           6.3969   12.6926    3.4251 H       1  LIG1        0.0780
     42 N           4.4385   13.0118    3.4777 N.pl3   1  LIG1       -0.3089
     43 O           0.8410   11.1081    4.1064 O.2     2  LIG2       -0.1397
     44 O          -1.3032   12.2461    4.2708 O.2     2  LIG2       -0.1397
     45 O           0.7440   13.4211    4.8279 O.3     2  LIG2       -0.0427
     46 O           5.4169   13.6538    9.7647 O.3     1  LIG1       -0.4951
     47 S           0.0580   12.1325    4.7788 S.3     2  LIG2        0.1396
@<TRIPOS>BOND
     1    37    36    1
     2    36    34    1
     3    36    38    1
     4    35    34    1
     5    39    38    1
     6    34    32    2
     7    38    40    2
     8    32    33    1
     9    32    42    1
    10    40    41    1
    11    40    42    1
    12    42     1    1
    13    43    47    2
    14    44    47    2
    15     2     1    1
    16     3     1    1
    17     1    18    1
    18    47    45    1
    19    47     4    1
    20    18    19   ar
    21    18    26   ar
    22    13    12    1
    23    20    19    1
    24    27    26    1
    25     4    12   ar
    26     4     5   ar
    27    19    21   ar
    28    26    24   ar
    29    12    10   ar
    30     6     5    1
    31     5     7   ar
    32    21    22    1
    33    21    23   ar
    34    24    25    1
    35    24    23   ar
    36    10    11    1
    37    10     9   ar
    38    23    46    1
    39     7     9   ar
    40     7     8    1
    41     9    14    1
    42    46    28    1
    43    31    28    1
    44    28    29    1
    45    28    30    1
    46    14    16    1
    47    14    15    1
    48    14    17    1
