@<TRIPOS>MOLECULE
7-Bromo-2-methyl-1-(phenylsulfanyl)naphtho[2,1-b]furan
 70 76 0 0 0
SMALL
GASTEIGER

@<TRIPOS>ATOM
      1 BR          2.7532   -3.0926   13.6209 Br      1  LIG1       -0.0503
      2 BR          1.7024    2.4314   13.7247 Br      2  LIG2       -0.0503
      3 S          -0.8089    2.3149    9.5220 S.3     1  LIG1       -0.0854
      4 S           4.9097    7.9068    9.4501 S.3     2  LIG2       -0.0854
      5 O           2.8096    3.0873    8.2734 O.2     1  LIG1       -0.4588
      6 O           1.2114    8.5640    8.3387 O.2     2  LIG2       -0.4588
      7 C           0.8855    2.2854    9.1148 C.ar    1  LIG1        0.0616
      8 C           1.9732    1.5228    9.6912 C.ar    1  LIG1        0.0419
      9 C           2.1119    0.4540   10.6193 C.ar    1  LIG1       -0.0060
     10 C           1.0140   -0.2288   11.2045 C.ar    1  LIG1       -0.0523
     11 H           0.1283    0.0391   10.9885 H       1  LIG1        0.0624
     12 C           1.2084   -1.2655   12.0748 C.ar    1  LIG1       -0.0471
     13 H           0.4642   -1.7191   12.4540 H       1  LIG1        0.0629
     14 C           2.5103   -1.6513   12.4013 C.ar    1  LIG1        0.0185
     15 C           3.5988   -1.0498   11.8613 C.ar    1  LIG1       -0.0400
     16 H           4.4711   -1.3453   12.0923 H       1  LIG1        0.0635
     17 C           3.4299    0.0315   10.9433 C.ar    1  LIG1       -0.0160
     18 C           4.5686    0.6755   10.3656 C.ar    1  LIG1       -0.0505
     19 H           5.4403    0.3881   10.6067 H       1  LIG1        0.0625
     20 C           4.4215    1.7066    9.4664 C.ar    1  LIG1       -0.0181
     21 H           5.1728    2.1434    9.0821 H       1  LIG1        0.0655
     22 C           3.1250    2.0758    9.1474 C.ar    1  LIG1        0.1369
     23 C           1.4387    3.1798    8.2495 C.ar    1  LIG1        0.1169
     24 C          -1.5254    0.8768    8.7418 C.ar    1  LIG1        0.0129
     25 C          -2.9082    0.7797    8.8297 C.ar    1  LIG1       -0.0480
     26 H          -3.4059    1.4397    9.2969 H       1  LIG1        0.0629
     27 C          -3.5481   -0.2793    8.2370 C.ar    1  LIG1       -0.0607
     28 H          -4.4934   -0.3459    8.2972 H       1  LIG1        0.0618
     29 C          -2.8433   -1.2462    7.5525 C.ar    1  LIG1       -0.0617
     30 H          -3.2963   -1.9745    7.1444 H       1  LIG1        0.0618
     31 C          -1.4807   -1.1400    7.4722 C.ar    1  LIG1       -0.0607
     32 H          -0.9902   -1.7981    6.9924 H       1  LIG1        0.0618
     33 C          -0.7944   -0.0807    8.0800 C.ar    1  LIG1       -0.0480
     34 H           0.1536   -0.0255    8.0360 H       1  LIG1        0.0629
     35 C           0.8817    4.2160    7.3591 C.3     1  LIG1       -0.0052
     36 H          -0.0948    4.1377    7.3390 H       1  LIG1        0.0308
     37 H           1.2392    4.0951    6.4549 H       1  LIG1        0.0308
     38 H           1.1319    5.1019    7.6944 H       1  LIG1        0.0308
     39 C           3.1882    7.8227    9.0997 C.ar    2  LIG2        0.0616
     40 C           2.1658    7.0118    9.7063 C.ar    2  LIG2        0.0419
     41 C           2.1157    5.9184   10.6054 C.ar    2  LIG2       -0.0060
     42 C           3.2483    5.3021   11.1781 C.ar    2  LIG2       -0.0523
     43 H           4.1138    5.6072   10.9320 H       2  LIG2        0.0624
     44 C           3.1368    4.2772   12.0785 C.ar    2  LIG2       -0.0471
     45 H           3.9131    3.8672   12.4440 H       2  LIG2        0.0629
     46 C           1.8517    3.8396   12.4540 C.ar    2  LIG2        0.0185
     47 C           0.7179    4.4008   11.9278 C.ar    2  LIG2       -0.0400
     48 H          -0.1364    4.0856   12.1978 H       2  LIG2        0.0635
     49 C           0.8167    5.4465   10.9860 C.ar    2  LIG2       -0.0160
     50 C          -0.3617    6.0318   10.4447 C.ar    2  LIG2       -0.0505
     51 H          -1.2115    5.7032   10.7147 H       2  LIG2        0.0625
     52 C          -0.2995    7.0605    9.5430 C.ar    2  LIG2       -0.0181
     53 H          -1.0838    7.4458    9.1700 H       2  LIG2        0.0655
     54 C           0.9730    7.5143    9.1977 C.ar    2  LIG2        0.1369
     55 C           2.5767    8.7279    8.3010 C.ar    2  LIG2        0.1169
     56 C           5.5811    6.4785    8.6212 C.ar    2  LIG2        0.0129
     57 C           6.8907    6.1480    8.9277 C.ar    2  LIG2       -0.0480
     58 H           7.3718    6.6588    9.5694 H       2  LIG2        0.0629
     59 C           7.5017    5.0766    8.2985 C.ar    2  LIG2       -0.0607
     60 H           8.4009    4.8542    8.5145 H       2  LIG2        0.0618
     61 C           6.8267    4.3348    7.3730 C.ar    2  LIG2       -0.0617
     62 H           7.2504    3.6005    6.9447 H       2  LIG2        0.0618
     63 C           5.5129    4.6642    7.0640 C.ar    2  LIG2       -0.0607
     64 H           5.0419    4.1554    6.4148 H       2  LIG2        0.0618
     65 C           4.8801    5.7262    7.6944 C.ar    2  LIG2       -0.0480
     66 H           3.9751    5.9354    7.4910 H       2  LIG2        0.0629
     67 C           3.0783    9.8464    7.4558 C.3     2  LIG2       -0.0052
     68 H           2.9604   10.6947    7.9331 H       2  LIG2        0.0308
     69 H           2.5745    9.8721    6.6157 H       2  LIG2        0.0308
     70 H           4.0283    9.7092    7.2637 H       2  LIG2        0.0308
@<TRIPOS>BOND
     1    64    63    1
     2    37    35    1
     3    69    67    1
     4    62    61    1
     5    32    31    1
     6    63    61   ar
     7    63    65   ar
     8    30    29    1
     9    70    67    1
    10    36    35    1
    11    35    38    1
    12    35    23    1
    13    61    59   ar
    14    67    68    1
    15    67    55    1
    16    31    29   ar
    17    31    33   ar
    18    66    65    1
    19    29    27   ar
    20    65    56   ar
    21    34    33    1
    22    33    24   ar
    23    27    28    1
    24    27    25   ar
    25    23     5   ar
    26    23     7   ar
    27     5    22   ar
    28    59    60    1
    29    59    57   ar
    30    55     6   ar
    31    55    39   ar
    32     6    54   ar
    33    56    57   ar
    34    56     4    1
    35    24    25   ar
    36    24     3    1
    37    25    26    1
    38    57    58    1
    39    21    20    1
    40    39     4    1
    41    39    40   ar
    42     7     3    1
    43     7     8   ar
    44    22    20   ar
    45    22     8   ar
    46    53    52    1
    47    54    52   ar
    48    54    40   ar
    49    20    18   ar
    50    52    50   ar
    51     8     9   ar
    52    40    41   ar
    53    18    19    1
    54    18    17   ar
    55    50    51    1
    56    50    49   ar
    57    41    49   ar
    58    41    42   ar
    59     9    17   ar
    60     9    10   ar
    61    43    42    1
    62    17    15   ar
    63    49    47   ar
    64    11    10    1
    65    42    44   ar
    66    10    12   ar
    67    15    16    1
    68    15    14   ar
    69    47    48    1
    70    47    46   ar
    71    12    14   ar
    72    12    13    1
    73    44    45    1
    74    44    46   ar
    75    14     1    1
    76    46     2    1
