@<TRIPOS>MOLECULE
2-(4-Methylphenylsulfonamido)acetic acid
 52 52 0 0 0
SMALL
GASTEIGER

@<TRIPOS>ATOM
      1 S           7.9169    2.2917    2.7881 S.O2    1  LIG1        0.0589
      2 S           0.8005    1.8925    4.5077 S.O2    2  LIG2        0.0589
      3 O           8.7493    2.5883    1.6646 O.2     1  LIG1       -0.1530
      4 O           7.3752    3.3344    3.5732 O.2     1  LIG1       -0.1530
      5 O           7.5999    1.3795    7.1792 O.3     1  LIG1       -0.4797
      6 H           7.7395    1.8439    7.8409 H       1  LIG1        0.2951
      7 O           9.1013    2.7452    6.2389 O.2     1  LIG1       -0.2495
      8 O           0.6553    2.9376    5.4536 O.2     2  LIG2       -0.1530
      9 O           1.0102    2.1943    3.1289 O.2     2  LIG2       -0.1530
     10 O          -1.7388    1.3268    7.9426 O.3     2  LIG2       -0.4797
     11 H          -2.2422    1.8387    8.3400 H       2  LIG2        0.2951
     12 O          -2.3454    2.5385    6.1779 O.2     2  LIG2       -0.2495
     13 N           8.8091    1.3760    3.7906 N.3     1  LIG1       -0.1792
     14 H           9.6293    1.1831    3.6138 H       1  LIG1        0.1486
     15 N          -0.5655    1.0204    4.5744 N.3     2  LIG2       -0.1792
     16 H          -1.0143    0.8389    3.8641 H       2  LIG2        0.1486
     17 C           3.3630   -1.1407    0.7979 C.3     1  LIG1       -0.0397
     18 H           3.3578   -1.9687    1.2844 H       1  LIG1        0.0278
     19 H           3.4872   -1.3193   -0.1361 H       1  LIG1        0.0278
     20 H           2.5273   -0.6877    0.9293 H       1  LIG1        0.0278
     21 C           4.4741   -0.2846    1.2907 C.ar    1  LIG1       -0.0503
     22 C           5.7975   -0.6854    1.1561 C.ar    1  LIG1       -0.0570
     23 H           5.9817   -1.5020    0.7525 H       1  LIG1        0.0621
     24 C           6.8416    0.0882    1.6035 C.ar    1  LIG1       -0.0351
     25 H           7.7215   -0.1890    1.4799 H       1  LIG1        0.0637
     26 C           6.5657    1.2901    2.2403 C.ar    1  LIG1        0.1053
     27 C           5.2688    1.7076    2.4014 C.ar    1  LIG1       -0.0351
     28 H           5.0828    2.5081    2.8363 H       1  LIG1        0.0637
     29 C           4.2544    0.9271    1.9133 C.ar    1  LIG1       -0.0570
     30 H           3.3792    1.2277    2.0040 H       1  LIG1        0.0621
     31 C           8.1612    0.8979    4.9999 C.3     1  LIG1        0.1144
     32 H           8.5039    0.0149    5.2095 H       1  LIG1        0.0556
     33 H           7.2111    0.8097    4.8294 H       1  LIG1        0.0556
     34 C           8.3563    1.7843    6.1920 C.2     1  LIG1        0.3204
     35 C           5.5035   -1.5037    6.2108 C.3     2  LIG2       -0.0397
     36 H           5.9939   -1.0479    6.8976 H       2  LIG2        0.0278
     37 H           6.0722   -1.6434    5.4505 H       2  LIG2        0.0278
     38 H           5.2014   -2.3518    6.5424 H       2  LIG2        0.0278
     39 C           4.3186   -0.6706    5.8025 C.ar    2  LIG2       -0.0503
     40 C           3.4719   -1.0800    4.7903 C.ar    2  LIG2       -0.0570
     41 H           3.6424   -1.8834    4.3554 H       2  LIG2        0.0621
     42 C           2.3862   -0.3350    4.4117 C.ar    2  LIG2       -0.0351
     43 H           1.8277   -0.6305    3.7280 H       2  LIG2        0.0637
     44 C           2.1304    0.8589    5.0547 C.ar    2  LIG2        0.1053
     45 C           2.9526    1.2953    6.0731 C.ar    2  LIG2       -0.0351
     46 H           2.7761    2.0924    6.5190 H       2  LIG2        0.0637
     47 C           4.0414    0.5262    6.4173 C.ar    2  LIG2       -0.0570
     48 H           4.6108    0.8280    7.0884 H       2  LIG2        0.0621
     49 C          -0.9969    0.5572    5.8869 C.3     2  LIG2        0.1144
     50 H          -0.2160    0.2926    6.3985 H       2  LIG2        0.0556
     51 H          -1.5563   -0.2268    5.7743 H       2  LIG2        0.0556
     52 C          -1.7619    1.5976    6.6598 C.2     2  LIG2        0.3204
@<TRIPOS>BOND
     1    19    17    1
     2    23    22    1
     3    17    20    1
     4    17    18    1
     5    17    21    1
     6    22    21   ar
     7    22    24   ar
     8    21    29   ar
     9    25    24    1
    10    24    26   ar
    11     3     1    2
    12    29    30    1
    13    29    27   ar
    14    26    27   ar
    15    26     1    1
    16    27    28    1
    17     1     4    2
    18     1    13    1
    19     9     2    2
    20    14    13    1
    21    43    42    1
    22    13    31    1
    23    16    15    1
    24    41    40    1
    25    42    40   ar
    26    42    44   ar
    27     2    15    1
    28     2    44    1
    29     2     8    2
    30    15    49    1
    31    40    39   ar
    32    33    31    1
    33    31    32    1
    34    31    34    1
    35    44    45   ar
    36    37    35    1
    37    51    49    1
    38    39    35    1
    39    39    47   ar
    40    49    50    1
    41    49    52    1
    42    45    47   ar
    43    45    46    1
    44    12    52    2
    45    34     7    2
    46    34     5    1
    47    35    38    1
    48    35    36    1
    49    47    48    1
    50    52    10    1
    51     5     6    1
    52    10    11    1
