@<TRIPOS>MOLECULE
Piperazindiium bis(3,4,5-trihydroxybenzoate) dihydrate
 29 27 0 0 0
SMALL
GASTEIGER

@<TRIPOS>ATOM
      1 O           2.2685    4.7082    8.4623 O.co2   1  LIG1       -0.2406
      2 O           1.5031    3.1529    9.8410 O.co2   1  LIG1       -0.2406
      3 O           2.5727    4.7227   14.4670 O.3     1  LIG1       -0.5032
      4 H           2.0476    4.0943   14.4332 H       1  LIG1        0.2923
      5 O           4.1458    6.8122   14.2320 O.3     1  LIG1       -0.5009
      6 H           4.6398    7.4420   14.0535 H       1  LIG1        0.2924
      7 O           4.9188    7.7496   11.7634 O.3     1  LIG1       -0.5032
      8 H           5.0712    7.9532   10.9839 H       1  LIG1        0.2923
      9 O          -0.6214    2.5100    8.3184 O.3     2  HOH2       -0.4105
     10 H           0.0845    2.7875    8.6993 H       0  HOH0        0.2052
     11 H          -1.2849    2.6646    8.7842 H       0  HOH0        0.2052
     12 N           1.2820    1.1550   11.7709 N.4     1  LIG1        0.2345
     13 H           1.6131    1.4268   12.5563 H       1  LIG1        0.2018
     14 H           1.5540    1.7575   11.1246 H       1  LIG1        0.2018
     15 C           2.1099    4.2429    9.6231 C.2     1  LIG1        0.3868
     16 C           2.6619    4.9897   10.8032 C.ar    1  LIG1        0.0703
     17 C           2.3168    4.5482   12.0767 C.ar    1  LIG1       -0.0022
     18 H           1.7145    3.8467   12.1729 H       1  LIG1        0.0663
     19 C           2.8618    5.1421   13.1993 C.ar    1  LIG1        0.1628
     20 C           3.7126    6.2299   13.0728 C.ar    1  LIG1        0.2006
     21 C           4.0607    6.6850   11.7980 C.ar    1  LIG1        0.1628
     22 C           3.5405    6.0657   10.6643 C.ar    1  LIG1       -0.0022
     23 H           3.7776    6.3677    9.8179 H       1  LIG1        0.0663
     24 C           1.7669   -0.2158   11.4514 C.3     1  LIG1        0.0076
     25 H           2.7362   -0.2343   11.4862 H       1  LIG1        0.0867
     26 H           1.4923   -0.4573   10.5532 H       1  LIG1        0.0867
     27 C          -0.2040    1.2095   11.8286 C.3     1  LIG1        0.0076
     28 H          -0.5649    1.0243   10.9475 H       1  LIG1        0.0867
     29 H          -0.4811    2.1033   12.0831 H       1  LIG1        0.0867
@<TRIPOS>BOND
     1     9    10    1
     2     9    11    1
     3     1    15   ar
     4    15     2   ar
     5    15    16    1
     6    23    22    1
     7    26    24    1
     8    22    16   ar
     9    22    21   ar
    10    16    17   ar
    11    28    27    1
    12     8     7    1
    13    14    12    1
    14    24    25    1
    15    24    12    1
    16     7    21    1
    17    12    27    1
    18    12    13    1
    19    21    20   ar
    20    27    29    1
    21    17    18    1
    22    17    19   ar
    23    20    19   ar
    24    20     5    1
    25    19     3    1
    26     6     5    1
    27     4     3    1
