@<TRIPOS>MOLECULE
4-Bromo-<i>N</i>-(1,5-dimethyl-3-oxo-2-phenyl-2,3-dihydro-1<i>H</i>- pyrazol-4-yl)benzenesulfonamide
 41 43 0 0 0
SMALL
GASTEIGER

@<TRIPOS>ATOM
      1 C           5.2430    5.4718    5.0161 C.ar    1  LIG1        0.1086
      2 C           4.9996    6.7802    4.6333 C.ar    1  LIG1       -0.0340
      3 H           4.1267    7.0580    4.4734 H       1  LIG1        0.0637
      4 C           6.0241    7.6614    4.4859 C.ar    1  LIG1       -0.0459
      5 H           5.8534    8.5412    4.2350 H       1  LIG1        0.0629
      6 C           7.3151    7.2427    4.7149 C.ar    1  LIG1        0.0180
      7 C           7.5840    5.9498    5.1321 C.ar    1  LIG1       -0.0459
      8 H           8.4585    5.6833    5.3031 H       1  LIG1        0.0629
      9 C           6.5468    5.0658    5.2906 C.ar    1  LIG1       -0.0340
     10 H           6.7135    4.1987    5.5807 H       1  LIG1        0.0637
     11 C           4.2329    2.2897    6.7665 C.ar    1  LIG1        0.1345
     12 C           3.2993    1.2915    6.7524 C.ar    1  LIG1        0.0606
     13 C           5.5079    1.7017    6.9767 C.ar    1  LIG1        0.2945
     14 C           6.2196   -0.6979    7.0928 C.ar    1  LIG1        0.0674
     15 C           6.4151   -1.4409    5.9540 C.ar    1  LIG1       -0.0362
     16 H           5.9236   -1.2590    5.1855 H       1  LIG1        0.0639
     17 C           7.3367   -2.4476    5.9556 C.ar    1  LIG1       -0.0598
     18 H           7.4699   -2.9552    5.1886 H       1  LIG1        0.0618
     19 C           8.0652   -2.7141    7.0849 C.ar    1  LIG1       -0.0616
     20 H           8.7019   -3.3922    7.0786 H       1  LIG1        0.0618
     21 C           7.8593   -1.9936    8.2033 C.ar    1  LIG1       -0.0598
     22 H           8.3381   -2.1910    8.9750 H       1  LIG1        0.0618
     23 C           6.9353   -0.9559    8.2111 C.ar    1  LIG1       -0.0362
     24 H           6.8109   -0.4441    8.9765 H       1  LIG1        0.0639
     25 C           1.8056    1.4395    6.6959 C.3     1  LIG1       -0.0208
     26 H           1.5822    2.2967    6.3258 H       1  LIG1        0.0293
     27 H           1.4442    1.3704    7.5821 H       1  LIG1        0.0293
     28 H           1.4362    0.7458    6.1438 H       1  LIG1        0.0293
     29 C           3.3296   -1.1505    7.2512 C.3     1  LIG1        0.0292
     30 H           2.3746   -1.1040    7.1696 H       1  LIG1        0.0472
     31 H           3.5642   -1.3606    8.1578 H       1  LIG1        0.0472
     32 H           3.6679   -1.8329    6.6677 H       1  LIG1        0.0472
     33 BR          8.7676    8.4340    4.4037 Br      1  LIG1       -0.0503
     34 N           3.9967    3.6615    6.5822 N.pl3   1  LIG1       -0.2092
     35 H           3.8866    4.1663    7.2700 H       1  LIG1        0.1739
     36 N           3.9001    0.1086    6.8920 N.ar    1  LIG1       -0.2822
     37 N           5.2637    0.3581    7.0959 N.ar    1  LIG1       -0.2156
     38 O           2.7224    5.0897    5.0019 O.2     1  LIG1       -0.1500
     39 O           4.1802    3.2808    4.1576 O.2     1  LIG1       -0.1500
     40 O           6.6657    2.1924    7.0275 O.2     1  LIG1       -0.2638
     41 S           3.9263    4.3091    5.1050 S.O2    1  LIG1        0.0725
@<TRIPOS>BOND
     1    39    41    2
     2     5     4    1
     3    33     6    1
     4     3     2    1
     5     4     2   ar
     6     4     6   ar
     7     2     1   ar
     8     6     7   ar
     9    38    41    2
    10     1    41    1
    11     1     9   ar
    12    41    34    1
    13     7     9   ar
    14     7     8    1
    15    16    15    1
    16    18    17    1
    17     9    10    1
    18    15    17   ar
    19    15    14   ar
    20    17    19   ar
    21    28    25    1
    22    26    25    1
    23    34    11    1
    24    34    35    1
    25    32    29    1
    26    25    12    1
    27    25    27    1
    28    12    11   ar
    29    12    36   ar
    30    11    13   ar
    31    36    37   ar
    32    36    29    1
    33    13    40    2
    34    13    37   ar
    35    20    19    1
    36    19    21   ar
    37    14    37    1
    38    14    23   ar
    39    30    29    1
    40    29    31    1
    41    21    23   ar
    42    21    22    1
    43    23    24    1
