@<TRIPOS>MOLECULE
6-Chloro-<i>N</i>'-(3,5-dibromo-2-hydroxybenzylidene)nicotinohydrazide
 29 30 0 0 0
SMALL
GASTEIGER

@<TRIPOS>ATOM
      1 BR          1.6826    7.4184    6.9758 Br      1  LIG1       -0.0465
      2 BR         -2.0934    3.4295    8.2852 Br      1  LIG1       -0.0502
      3 CL         -1.9498    6.1109   -5.4925 Cl      1  LIG1       -0.0620
      4 O           0.7175    6.8342    4.1942 O.3     1  LIG1       -0.5050
      5 H           0.4222    6.7056    3.4397 H       1  LIG1        0.2922
      6 O           0.9005    6.1902    0.4770 O.2     1  LIG1       -0.2684
      7 N          -0.8034    5.7742    2.4222 N.2     1  LIG1       -0.1873
      8 N          -1.2185    5.7074    1.1012 N.am    1  LIG1       -0.2029
      9 N          -2.1295    5.2908   -3.0309 N.ar    1  LIG1       -0.2428
     10 C          -1.0404    5.2539    4.7117 C.ar    1  LIG1        0.0381
     11 C           0.0170    6.0922    5.0860 C.ar    1  LIG1        0.1394
     12 C           0.3515    6.1850    6.4270 C.ar    1  LIG1        0.0609
     13 C          -0.2657    5.3900    7.3792 C.ar    1  LIG1       -0.0302
     14 H          -0.0137    5.4388    8.2732 H       1  LIG1        0.0641
     15 C          -1.2613    4.5229    6.9758 C.ar    1  LIG1        0.0198
     16 C          -1.6633    4.4584    5.6620 C.ar    1  LIG1       -0.0355
     17 H          -2.3504    3.8836    5.4113 H       1  LIG1        0.0636
     18 C          -1.4675    5.1574    3.3180 C.2     1  LIG1        0.0564
     19 H          -2.2141    4.6532    3.0872 H       1  LIG1        0.0852
     20 C          -0.2837    6.0071    0.1744 C.2     1  LIG1        0.2647
     21 C          -0.7292    6.0626   -1.2393 C.ar    1  LIG1        0.0565
     22 C          -0.0484    6.8876   -2.1278 C.ar    1  LIG1       -0.0453
     23 H           0.6559    7.4159   -1.8280 H       1  LIG1        0.0626
     24 C          -0.4210    6.9173   -3.4452 C.ar    1  LIG1       -0.0241
     25 H           0.0090    7.4713   -4.0557 H       1  LIG1        0.0648
     26 C          -1.4534    6.0989   -3.8304 C.ar    1  LIG1        0.1292
     27 C          -1.7529    5.2910   -1.7480 C.ar    1  LIG1        0.0414
     28 H          -2.2114    4.7341   -1.1611 H       1  LIG1        0.0838
     29 H          -2.1121    5.7615    1.0176 H       1  LIG1        0.1776
@<TRIPOS>BOND
     1     3    26    1
     2    25    24    1
     3    26    24   ar
     4    26     9   ar
     5    24    22   ar
     6     9    27   ar
     7    22    23    1
     8    22    21   ar
     9    27    21   ar
    10    27    28    1
    11    21    20    1
    12    20     6    2
    13    20     8   am
    14    29     8    1
    15     8     7    1
    16     7    18    2
    17    19    18    1
    18    18    10    1
    19     5     4    1
    20     4    11    1
    21    10    11   ar
    22    10    16   ar
    23    11    12   ar
    24    17    16    1
    25    16    15   ar
    26    12     1    1
    27    12    13   ar
    28    15    13   ar
    29    15     2    1
    30    13    14    1
