@<TRIPOS>MOLECULE
4-Methoxy-N-(3-phenylallylidene)aniline
 33 34 0 0 0
SMALL
GASTEIGER

@<TRIPOS>ATOM
      1 C           0.6019    1.2008   -9.0664 C.ar    1  LIG1       -0.0329
      2 H           1.0277    1.6659   -8.3823 H       1  LIG1        0.0640
      3 C           0.0130    1.0185  -11.3802 C.ar    1  LIG1        0.1202
      4 C          -0.6813   -0.1514  -11.0955 C.ar    1  LIG1       -0.0180
      5 H          -1.1179   -0.6083  -11.7774 H       1  LIG1        0.0655
      6 C          -0.7260   -0.6398   -9.8054 C.ar    1  LIG1       -0.0329
      7 H          -1.1908   -1.4255   -9.6262 H       1  LIG1        0.0640
      8 N          -0.1191   -0.3723   -7.4099 N.2     1  LIG1       -0.2556
      9 C          -0.6329   -3.1759   -2.9660 C.ar    1  LIG1       -0.0546
     10 H          -1.0508   -2.3575   -3.1098 H       1  LIG1        0.0623
     11 C           0.6669    1.6949  -10.3646 C.ar    1  LIG1       -0.0180
     12 H           1.1439    2.4717  -10.5506 H       1  LIG1        0.0655
     13 O          -0.0332    1.4242  -12.6932 O.3     1  LIG1       -0.4951
     14 C           0.5016   -5.1131   -3.7928 C.ar    1  LIG1       -0.0546
     15 H           0.8422   -5.6090   -4.5021 H       1  LIG1        0.0623
     16 C          -0.2475   -2.0785   -5.7580 C.2     1  LIG1       -0.0431
     17 H          -0.3565   -1.4501   -5.0841 H       1  LIG1        0.0633
     18 C           0.0866   -4.8865   -1.4528 C.ar    1  LIG1       -0.0617
     19 H           0.1602   -5.2134   -0.5877 H       1  LIG1        0.0618
     20 C          -0.5406   -3.6800   -1.6867 C.ar    1  LIG1       -0.0612
     21 H          -0.9036   -3.2030   -0.9757 H       1  LIG1        0.0618
     22 C          -0.2006   -1.6116   -7.1212 C.2     1  LIG1        0.0283
     23 H          -0.2302   -2.2338   -7.8117 H       1  LIG1        0.0830
     24 C           0.6041   -5.6065   -2.5090 C.ar    1  LIG1       -0.0612
     25 H           1.0212   -6.4237   -2.3566 H       1  LIG1        0.0618
     26 C          -0.1436   -3.3582   -5.4145 C.2     1  LIG1       -0.0532
     27 H          -0.0902   -3.9779   -6.1055 H       1  LIG1        0.0624
     28 C          -0.1054   -3.8801   -4.0468 C.ar    1  LIG1       -0.0250
     29 C          -0.0801    0.0322   -8.7634 C.ar    1  LIG1        0.0641
     30 C           0.6416    2.6250  -13.0327 C.3     1  LIG1        0.0788
     31 H           0.5297    2.8011  -13.9685 H       1  LIG1        0.0660
     32 H           1.5755    2.5348  -12.8330 H       1  LIG1        0.0660
     33 H           0.2742    3.3526  -12.5249 H       1  LIG1        0.0660
@<TRIPOS>BOND
     1    31    30    1
     2    30    32    1
     3    30    13    1
     4    30    33    1
     5    13     3    1
     6     5     4    1
     7     3     4   ar
     8     3    11   ar
     9     4     6   ar
    10    12    11    1
    11    11     1   ar
    12     6     7    1
    13     6    29   ar
    14     1    29   ar
    15     1     2    1
    16    29     8    1
    17    23    22    1
    18     8    22    2
    19    22    16    1
    20    27    26    1
    21    16    26    2
    22    16    17    1
    23    26    28    1
    24    15    14    1
    25    28    14   ar
    26    28     9   ar
    27    14    24   ar
    28    10     9    1
    29     9    20   ar
    30    24    25    1
    31    24    18   ar
    32    20    18   ar
    33    20    21    1
    34    18    19    1
