@<TRIPOS>MOLECULE
Diethylammonium 2,5-dihydroxybenzenesulfonate
 34 33 0 0 0
SMALL
GASTEIGER

@<TRIPOS>ATOM
      1 C           6.9731    1.8677    0.5854 C.ar    1  LIG1        0.1642
      2 C           6.8636    2.6071   -0.5961 C.ar    1  LIG1        0.1444
      3 C           7.6391    3.7554   -0.7424 C.ar    1  LIG1       -0.0147
      4 H           7.5821    4.2520   -1.5255 H       1  LIG1        0.0656
      5 C           8.4935    4.1638    0.2665 C.ar    1  LIG1       -0.0166
      6 H           9.0077    4.9309    0.1548 H       1  LIG1        0.0655
      7 C           8.5901    3.4328    1.4515 C.ar    1  LIG1        0.1190
      8 C           7.8257    2.2879    1.6048 C.ar    1  LIG1        0.0108
      9 H           7.8814    1.7971    2.3924 H       1  LIG1        0.0675
     10 O           5.9999    2.1845   -1.5697 O.3     1  LIG1       -0.5048
     11 H           6.0513    2.7653   -2.1898 H       1  LIG1        0.2922
     12 O           9.4518    3.8762    2.4199 O.3     1  LIG1       -0.5067
     13 H           9.3792    3.4209    3.0145 H       1  LIG1        0.2921
     14 S           6.1075    0.3363    0.8086 S.3     1  LIG1        0.1432
     15 O           4.6718    0.6127    0.7457 O.2     1  LIG1       -0.1396
     16 O           6.5452   -0.5319   -0.2830 O.2     1  LIG1       -0.1396
     17 O           6.5125   -0.1710    2.1090 O.3     1  LIG1       -0.0425
     18 C           1.4830   -0.4046    0.4598 C.3     2  LIG2       -0.0245
     19 H           0.8996   -0.1763    1.1878 H       2  LIG2        0.0281
     20 H           2.3448   -0.6495    0.8050 H       2  LIG2        0.0281
     21 H           1.1115   -1.1431   -0.0281 H       2  LIG2        0.0281
     22 C           1.6257    0.7663   -0.4468 C.3     2  LIG2       -0.0366
     23 H           0.7617    0.9773   -0.8331 H       2  LIG2        0.0811
     24 H           1.9163    1.5349    0.0690 H       2  LIG2        0.0811
     25 C           2.7694    1.6682   -2.4911 C.3     2  LIG2       -0.0366
     26 H           1.9011    2.0585   -2.6809 H       2  LIG2        0.0811
     27 H           3.3175    2.3509   -2.0730 H       2  LIG2        0.0811
     28 C           3.4045    1.2433   -3.7688 C.3     2  LIG2       -0.0245
     29 H           3.4098    1.9802   -4.3838 H       2  LIG2        0.0281
     30 H           2.9069    0.5139   -4.1460 H       2  LIG2        0.0281
     31 H           4.3068    0.9615   -3.5985 H       2  LIG2        0.0281
     32 N           2.5976    0.5161   -1.5345 N.4     2  LIG2        0.2266
     33 H           3.3236    0.2863   -1.2539 H       2  LIG2        0.2013
     34 H           2.2361   -0.2863   -1.9097 H       2  LIG2        0.2013
@<TRIPOS>BOND
     1    29    28    1
     2    30    28    1
     3    28    31    1
     4    28    25    1
     5    26    25    1
     6    25    27    1
     7    25    32    1
     8    11    10    1
     9    34    32    1
    10    10     2    1
    11    32    33    1
    12    32    22    1
    13     4     3    1
    14    23    22    1
    15     3     2   ar
    16     3     5   ar
    17     2     1   ar
    18    22    24    1
    19    22    18    1
    20    16    14    2
    21    21    18    1
    22     6     5    1
    23     5     7   ar
    24    18    20    1
    25    18    19    1
    26     1    14    1
    27     1     8   ar
    28    15    14    2
    29    14    17    1
    30     7     8   ar
    31     7    12    1
    32     8     9    1
    33    12    13    1
