@<TRIPOS>MOLECULE
3-(5-Chloro-2-hydroxy-5-chloroanilino)isobenzofuran-1(3H)-one
 29 31 0 0 0
SMALL
GASTEIGER

@<TRIPOS>ATOM
      1 C           2.5418    3.4424    4.2219 C.2     1  LIG1        0.3415
      2 C           2.7639    3.9779    5.5766 C.ar    1  LIG1        0.0673
      3 C           2.0412    3.7678    6.7397 C.ar    1  LIG1       -0.0473
      4 C           2.4850    4.3896    7.8793 C.ar    1  LIG1       -0.0610
      5 C           3.6227    5.1856    7.8641 C.ar    1  LIG1       -0.0613
      6 C           4.3431    5.3840    6.7023 C.ar    1  LIG1       -0.0527
      7 C           3.8864    4.7681    5.5591 C.ar    1  LIG1        0.0252
      8 C           4.4386    4.8049    4.1647 C.3     1  LIG1        0.1957
      9 C           6.4900    4.3506    2.8883 C.ar    1  LIG1        0.0734
     10 C           7.6517    3.5751    2.8263 C.ar    1  LIG1        0.1378
     11 C           8.4328    3.5809    1.6925 C.ar    1  LIG1       -0.0170
     12 C           8.0885    4.3596    0.6008 C.ar    1  LIG1       -0.0398
     13 C           6.9456    5.1221    0.6698 C.ar    1  LIG1        0.0429
     14 C           6.1430    5.1256    1.7942 C.ar    1  LIG1       -0.0188
     15 N           5.7590    4.3358    4.0841 N.pl3   1  LIG1       -0.3028
     16 O           1.7052    2.6846    3.8111 O.2     1  LIG1       -0.2449
     17 O           3.4945    3.9410    3.4098 O.3     1  LIG1       -0.4350
     18 O           7.9375    2.8458    3.9476 O.3     1  LIG1       -0.5049
     19 CL          6.4854    6.1229   -0.6818 Cl      1  LIG1       -0.0835
     20 H           5.3918    5.6413    1.8000 H       1  LIG1        0.0652
     21 H           9.1811    3.0456    1.6481 H       1  LIG1        0.0655
     22 H           1.2494    3.2186    6.7560 H       1  LIG1        0.0626
     23 H           4.3583    5.6759    3.7404 H       1  LIG1        0.1006
     24 H           3.8982    5.5951    8.6496 H       1  LIG1        0.0618
     25 H           5.0986    5.9297    6.7210 H       1  LIG1        0.0622
     26 H           8.6653    4.4184   -0.1987 H       1  LIG1        0.0633
     27 H           2.0477    4.2800    8.6846 H       1  LIG1        0.0618
     28 H           5.9170    3.6916    4.5586 H       1  LIG1        0.1499
     29 H           8.7245    2.6072    3.9624 H       1  LIG1        0.2922
@<TRIPOS>BOND
     1    19    13    1
     2    26    12    1
     3    12    13   ar
     4    12    11   ar
     5    13    14   ar
     6    21    11    1
     7    11    10   ar
     8    14    20    1
     9    14     9   ar
    10    10     9   ar
    11    10    18    1
    12     9    15    1
    13    17     8    1
    14    17     1    1
    15    23     8    1
    16    16     1    2
    17    18    29    1
    18    15     8    1
    19    15    28    1
    20     8     7    1
    21     1     2    1
    22     7     2   ar
    23     7     6   ar
    24     2     3   ar
    25     6    25    1
    26     6     5   ar
    27     3    22    1
    28     3     4   ar
    29     5     4   ar
    30     5    24    1
    31     4    27    1
