@<TRIPOS>MOLECULE
1-Bromo-4-nitro-2-(trifluoromethyl)benzene
 50 50 0 0 0
SMALL
GASTEIGER

@<TRIPOS>ATOM
      1 BR          7.0170   25.9988    6.2558 Br      1  LIG1       -0.0498
      2 BR         -1.0354   19.1132    6.2167 Br      2  LIG2       -0.0497
      3 BR          5.0828   22.3866    6.3394 Br      3  LIG3       -0.0497
      4 F           5.5776   24.9255    3.6219 F       1  LIG1       -0.1933
      5 F           3.8269   25.9988    2.9948 F       1  LIG1       -0.1933
      6 F           0.4262   20.0343    3.5246 F       2  LIG2       -0.1659
      7 F           2.1788   18.9295    2.9759 F       2  LIG2       -0.1659
      8 F           0.4291   17.8913    3.6414 F       2  LIG2       -0.1659
      9 F           6.5473   21.4902    9.0065 F       3  LIG3       -0.1659
     10 F           8.2628   22.6210    9.6116 F       3  LIG3       -0.1659
     11 F           6.4818   23.6339    8.9638 F       3  LIG3       -0.1659
     12 N           0.9775   25.9988    6.9647 N.pl3   1  LIG1        0.0564
     13 N           5.0097   18.9139    6.9559 N.pl3   2  LIG2        0.0564
     14 N          11.1239   22.7243    5.6679 N.pl3   3  LIG3        0.0564
     15 O           0.2688   25.9988    5.9442 O.2     1  LIG1       -0.1261
     16 O           0.5200   25.9988    8.0887 O.2     1  LIG1       -0.1261
     17 O           5.7008   18.7746    5.9581 O.2     2  LIG2       -0.1261
     18 O           5.4437   18.9423    8.0976 O.2     2  LIG2       -0.1261
     19 O          11.8150   22.7839    6.6683 O.2     3  LIG3       -0.1261
     20 O          11.5756   22.7278    4.5288 O.2     3  LIG3       -0.1261
     21 C           5.1250   25.9988    6.4147 C.ar    1  LIG1        0.0270
     22 C           4.2844   25.9988    5.2996 C.ar    1  LIG1        0.0430
     23 C           2.9208   25.9988    5.5027 C.ar    1  LIG1       -0.0214
     24 H           2.3284   25.9988    4.7596 H       1  LIG1        0.0645
     25 C           2.4242   25.9988    6.7768 C.ar    1  LIG1        0.1267
     26 C           3.2404   25.9988    7.9008 C.ar    1  LIG1       -0.0304
     27 H           2.8709   25.9988    8.7763 H       1  LIG1        0.0641
     28 C           4.6099   25.9988    7.7015 C.ar    1  LIG1       -0.0452
     29 H           5.1983   25.9988    8.4483 H       1  LIG1        0.0629
     30 C           4.8269   25.9988    3.8879 C.3     1  LIG1        0.3409
     31 C           0.8494   19.1417    6.3807 C.ar    2  LIG2        0.0296
     32 C           1.6940   19.0505    5.2756 C.ar    2  LIG2        0.0709
     33 C           3.0654   18.9864    5.4673 C.ar    2  LIG2       -0.0188
     34 H           3.6607   18.9167    4.7294 H       2  LIG2        0.0646
     35 C           3.5405   19.0269    6.7642 C.ar    2  LIG2        0.1268
     36 C           2.7390   19.1489    7.8692 C.ar    2  LIG2       -0.0304
     37 H           3.1094   19.1940    8.7435 H       2  LIG2        0.0641
     38 C           1.3734   19.2061    7.6661 C.ar    2  LIG2       -0.0451
     39 H           0.7879   19.2911    8.4104 H       2  LIG2        0.0629
     40 C           1.1847   18.9753    3.8551 C.3     2  LIG2        0.4185
     41 C           6.9666   22.4515    6.1902 C.ar    3  LIG3        0.0296
     42 C           7.8014   22.5576    7.3091 C.ar    3  LIG3        0.0709
     43 C           9.1689   22.6546    7.1136 C.ar    3  LIG3       -0.0188
     44 H           9.7564   22.7194    7.8579 H       3  LIG3        0.0646
     45 C           9.6694   22.6546    5.8294 C.ar    3  LIG3        0.1268
     46 C           8.8552   22.5655    4.7193 C.ar    3  LIG3       -0.0304
     47 H           9.2276   22.5738    3.8451 H       3  LIG3        0.0641
     48 C           7.4828   22.4633    4.9009 C.ar    3  LIG3       -0.0451
     49 H           6.9021   22.4005    4.1516 H       3  LIG3        0.0629
     50 C           7.2667   22.5860    8.7170 C.3     3  LIG3        0.4185
@<TRIPOS>BOND
     1     7    40    1
     2     5    30    1
     3     6    40    1
     4     4    30    1
     5     8    40    1
     6    47    46    1
     7    40    32    1
     8    30    22    1
     9    49    48    1
    10    20    14    2
    11    46    48   ar
    12    46    45   ar
    13    34    33    1
    14    24    23    1
    15    48    41   ar
    16    32    33   ar
    17    32    31   ar
    18    22    23   ar
    19    22    21   ar
    20    33    35   ar
    21    23    25   ar
    22    14    45    1
    23    14    19    2
    24    45    43   ar
    25    15    12    2
    26    17    13    2
    27    41     3    1
    28    41    42   ar
    29     2    31    1
    30     1    21    1
    31    31    38   ar
    32    21    28   ar
    33    35    13    1
    34    35    36   ar
    35    25    12    1
    36    25    26   ar
    37    13    18    2
    38    12    16    2
    39    43    42   ar
    40    43    44    1
    41    42    50    1
    42    38    36   ar
    43    38    39    1
    44    28    26   ar
    45    28    29    1
    46    36    37    1
    47    26    27    1
    48    50    11    1
    49    50     9    1
    50    50    10    1
