@<TRIPOS>MOLECULE
5-Bromo-N'-(4-hydroxybenzylidene)nicotinohydrazide
 29 30 0 0 0
SMALL
GASTEIGER

@<TRIPOS>ATOM
      1 BR          5.7330    1.0880   17.2781 Br      1  LIG1       -0.0487
      2 O           9.8160    2.2974    3.9736 O.3     1  LIG1       -0.5068
      3 H          10.5409    2.0673    3.6686 H       1  LIG1        0.2921
      4 O           6.7663    2.1992   12.0288 O.2     1  LIG1       -0.2688
      5 N           8.4216    1.2682   10.0999 N.3     1  LIG1       -0.1326
      6 N           8.4575    0.8160   11.4070 N.am    1  LIG1       -0.2288
      7 N           9.2987    0.1416   15.4811 N.ar    1  LIG1       -0.2614
      8 C          10.4996    0.6848    7.1761 C.ar    1  LIG1       -0.0535
      9 H          11.1299    0.1279    7.5739 H       1  LIG1        0.0622
     10 C          10.6485    1.0405    5.8488 C.ar    1  LIG1       -0.0199
     11 H          11.3712    0.7242    5.3540 H       1  LIG1        0.0654
     12 C           9.7116    1.8741    5.2617 C.ar    1  LIG1        0.1169
     13 C           8.6129    2.3119    5.9908 C.ar    1  LIG1       -0.0199
     14 H           7.9695    2.8478    5.5877 H       1  LIG1        0.0654
     15 C           8.4792    1.9530    7.3055 C.ar    1  LIG1       -0.0535
     16 H           7.7445    2.2548    7.7900 H       1  LIG1        0.0622
     17 C           9.4226    1.1459    7.9291 C.ar    1  LIG1       -0.0251
     18 C           9.3193    0.7701    9.3405 C.3     1  LIG1        0.0930
     19 H           9.9214    0.1545    9.6915 H       1  LIG1        0.0564
     20 C           7.6391    1.3768   12.3142 C.2     1  LIG1        0.2603
     21 C           7.8630    0.9528   13.7329 C.ar    1  LIG1        0.0571
     22 C           6.8229    1.1306   14.6448 C.ar    1  LIG1       -0.0327
     23 H           5.9980    1.4686   14.3767 H       1  LIG1        0.0637
     24 C           7.0620    0.7886   15.9545 C.ar    1  LIG1        0.0367
     25 C           8.2771    0.2824   16.3357 C.ar    1  LIG1        0.0415
     26 H           8.3966    0.0266   17.2216 H       1  LIG1        0.0841
     27 C           9.0813    0.4917   14.2096 C.ar    1  LIG1        0.0398
     28 H           9.7877    0.4217   13.6085 H       1  LIG1        0.0837
     29 H           8.9552    0.0885   11.5843 H       1  LIG1        0.1709
@<TRIPOS>BOND
     1     3     2    1
     2     2    12    1
     3    12    10   ar
     4    12    13   ar
     5    11    10    1
     6    14    13    1
     7    10     8   ar
     8    13    15   ar
     9     8     9    1
    10     8    17   ar
    11    15    16    1
    12    15    17   ar
    13    17    18    1
    14    18    19    1
    15    18     5    1
    16     5     6    1
    17     6    29    1
    18     6    20   am
    19     4    20    2
    20    20    21    1
    21    28    27    1
    22    21    27   ar
    23    21    22   ar
    24    27     7   ar
    25    23    22    1
    26    22    24   ar
    27     7    25   ar
    28    24    25   ar
    29    24     1    1
    30    25    26    1
