@<TRIPOS>MOLECULE
2,2-Dichloro-<i>N</i>-(3-nitrophenyl)acetamide
 21 21 0 0 0
SMALL
GASTEIGER

@<TRIPOS>ATOM
      1 C           0.3126    1.5013   11.9729 C.ar    1  LIG1        0.0356
      2 C           1.3530    0.6065   12.1219 C.ar    1  LIG1       -0.0102
      3 H           1.9603    0.4579   11.4380 H       1  LIG1        0.0659
      4 C           1.4827   -0.0260   13.3402 C.ar    1  LIG1        0.1279
      5 C           0.6275    0.1768   14.3975 C.ar    1  LIG1       -0.0314
      6 H           0.7207   -0.2662   15.1633 H       1  LIG1        0.0640
      7 C          -0.4017    1.0745   14.2207 C.ar    1  LIG1       -0.0579
      8 H          -0.9897    1.2991   14.9427 H       1  LIG1        0.0619
      9 C          -0.5612    1.7379   13.0219 C.ar    1  LIG1       -0.0403
     10 H          -1.2588    2.3427   12.9202 H       1  LIG1        0.0636
     11 C           1.0589    2.6605    9.9467 C.2     1  LIG1        0.2500
     12 C           0.5304    3.5109    8.7989 C.3     1  LIG1        0.1833
     13 H          -0.3267    3.7483    8.9168 H       1  LIG1        0.0732
     14 N           0.0994    2.2091   10.7583 N.am    1  LIG1       -0.2832
     15 H          -0.6832    2.4173   10.5698 H       1  LIG1        0.1549
     16 N           2.5945   -0.9672   13.4955 N.pl3   1  LIG1        0.0565
     17 O           2.2459    2.4337   10.0699 O.2     1  LIG1       -0.2725
     18 O           3.5256   -0.8973   12.7016 O.2     1  LIG1       -0.1261
     19 O           2.5676   -1.7502   14.4315 O.2     1  LIG1       -0.1261
     20 CL          1.4848    4.9915    8.6948 Cl      1  LIG1       -0.0945
     21 CL          0.6656    2.5778    7.3071 Cl      1  LIG1       -0.0945
@<TRIPOS>BOND
     1    21    12    1
     2    20    12    1
     3    12    13    1
     4    12    11    1
     5    11    17    2
     6    11    14   am
     7    15    14    1
     8    14     1    1
     9     3     2    1
    10     1     2   ar
    11     1     9   ar
    12     2     4   ar
    13    18    16    2
    14    10     9    1
    15     9     7   ar
    16     4    16    1
    17     4     5   ar
    18    16    19    2
    19     7     5   ar
    20     7     8    1
    21     5     6    1
