@<TRIPOS>MOLECULE
2-Hydroxy-5-nitrobenzaldehyde 2,4-dinitrophenylhydrazone
 34 35 0 0 0
SMALL
GASTEIGER

@<TRIPOS>ATOM
      1 O           7.8918    7.5005    2.8576 O.2     1  LIG1       -0.1261
      2 O           6.6083    9.2415    2.9375 O.2     1  LIG1       -0.1261
      3 O           5.5317   11.5791   -1.0450 O.2     1  LIG1       -0.1261
      4 O           6.9023   11.5597   -2.7138 O.2     1  LIG1       -0.1261
      5 O          12.7221    6.6787   -1.5215 O.3     1  LIG1       -0.5061
      6 O          16.5396    2.7774    1.5009 O.2     1  LIG1       -0.1261
      7 O          15.2567    3.3808    3.1329 O.2     1  LIG1       -0.1261
      8 N           9.8419    7.5060    1.0667 N.pl3   1  LIG1       -0.2356
      9 N          10.9935    7.0650    0.4707 N.2     1  LIG1       -0.1897
     10 N           7.4344    8.5371    2.3610 N.pl3   1  LIG1        0.0584
     11 N           6.5449   11.1757   -1.6057 N.pl3   1  LIG1        0.0565
     12 N          15.6085    3.4394    1.9569 N.pl3   1  LIG1        0.0564
     13 C           7.8519    8.9105    1.0191 C.ar    1  LIG1        0.1507
     14 C           7.0510    9.8377    0.3676 C.ar    1  LIG1        0.0006
     15 H           6.3123   10.2086    0.7930 H       1  LIG1        0.0664
     16 C           7.3715   10.1967   -0.9207 C.ar    1  LIG1        0.1285
     17 C           8.4772    9.6390   -1.5812 C.ar    1  LIG1       -0.0296
     18 H           8.6705    9.8826   -2.4569 H       1  LIG1        0.0641
     19 C           9.2692    8.7323   -0.9251 C.ar    1  LIG1       -0.0348
     20 H           9.9994    8.3626   -1.3672 H       1  LIG1        0.0638
     21 C           9.0019    8.3451    0.4105 C.ar    1  LIG1        0.0785
     22 C          11.7891    6.3891    1.2319 C.2     1  LIG1        0.0563
     23 H          11.5846    6.2881    2.1333 H       1  LIG1        0.0852
     24 C          12.9967    5.7849    0.7001 C.ar    1  LIG1        0.0381
     25 C          13.4182    5.9399   -0.6396 C.ar    1  LIG1        0.1256
     26 C          14.5796    5.3009   -1.0943 C.ar    1  LIG1       -0.0174
     27 H          14.8644    5.4331   -1.9696 H       1  LIG1        0.0655
     28 C          15.3042    4.4780   -0.2566 C.ar    1  LIG1       -0.0280
     29 H          16.0658    4.0400   -0.5627 H       1  LIG1        0.0641
     30 C          14.8699    4.3186    1.0571 C.ar    1  LIG1        0.1270
     31 C          13.7522    4.9659    1.5414 C.ar    1  LIG1       -0.0193
     32 H          13.5013    4.8566    2.4300 H       1  LIG1        0.0648
     33 H           9.7315    7.2971    1.9287 H       1  LIG1        0.1744
     34 H          11.9810    6.9941   -1.0487 H       1  LIG1        0.2922
@<TRIPOS>BOND
     1     4    11    2
     2    18    17    1
     3    27    26    1
     4    11     3    2
     5    11    16    1
     6    17    19   ar
     7    17    16   ar
     8     5    34    1
     9     5    25    1
    10    20    19    1
    11    26    25   ar
    12    26    28   ar
    13    19    21   ar
    14    16    14   ar
    15    25    24   ar
    16    29    28    1
    17    28    30   ar
    18    14    15    1
    19    14    13   ar
    20    21    13   ar
    21    21     8    1
    22     9     8    1
    23     9    22    2
    24    24    22    1
    25    24    31   ar
    26    13    10    1
    27    30    31   ar
    28    30    12    1
    29     8    33    1
    30    22    23    1
    31     6    12    2
    32    31    32    1
    33    12     7    2
    34    10     1    2
    35    10     2    2
