@<TRIPOS>MOLECULE
2-Benzoylpyridine semicarbazone
 60 62 0 0 0
SMALL
GASTEIGER

@<TRIPOS>ATOM
      1 O           7.4558    1.4039    0.1454 O.2     1  LIG1       -0.2513
      2 N           6.9161    3.5390    0.6270 N.am    1  LIG1       -0.3120
      3 H           6.0965    3.4313    0.3890 H       1  LIG1        0.1465
      4 H           7.1827    4.3040    0.9169 H       1  LIG1        0.1465
      5 N           9.0592    2.7768    0.9025 N.am    1  LIG1       -0.1904
      6 H           9.6661    2.1800    0.7826 H       1  LIG1        0.1788
      7 N           9.3759    3.9918    1.4518 N.2     1  LIG1       -0.1765
      8 N          11.5287    2.0309    1.6393 N.ar    1  LIG1       -0.2534
      9 C           7.7651    2.5302    0.5497 C.2     1  LIG1        0.3165
     10 C          10.5877    4.2474    1.8266 C.2     1  LIG1        0.1143
     11 C          10.7421    5.6021    2.4347 C.ar    1  LIG1        0.0040
     12 C           9.9624    6.6659    1.9852 C.ar    1  LIG1       -0.0524
     13 H           9.3785    6.5382    1.2735 H       1  LIG1        0.0624
     14 C          10.0476    7.9025    2.5824 C.ar    1  LIG1       -0.0611
     15 H           9.5322    8.6071    2.2622 H       1  LIG1        0.0618
     16 C          10.8933    8.1009    3.6521 C.ar    1  LIG1       -0.0617
     17 H          10.9357    8.9323    4.0659 H       1  LIG1        0.0618
     18 C          11.6725    7.0656    4.1017 C.ar    1  LIG1       -0.0611
     19 H          12.2579    7.2025    4.8114 H       1  LIG1        0.0618
     20 C          11.5958    5.8309    3.5102 C.ar    1  LIG1       -0.0524
     21 H          12.1220    5.1354    3.8320 H       1  LIG1        0.0624
     22 C          11.7630    3.3509    1.7004 C.ar    1  LIG1        0.0912
     23 C          13.0521    3.8557    1.6259 C.ar    1  LIG1       -0.0341
     24 H          13.1994    4.7735    1.6416 H       1  LIG1        0.0639
     25 C          14.1102    2.9830    1.5275 C.ar    1  LIG1       -0.0583
     26 H          14.9800    3.3082    1.4865 H       1  LIG1        0.0619
     27 C          13.8821    1.6371    1.4883 C.ar    1  LIG1       -0.0436
     28 H          14.5861    1.0326    1.4356 H       1  LIG1        0.0633
     29 C          12.5904    1.2053    1.5305 C.ar    1  LIG1        0.0283
     30 H          12.4306    0.2903    1.4819 H       1  LIG1        0.0830
     31 O           5.0441    1.4076    9.8507 O.2     2  LIG2       -0.2513
     32 N           4.4023    3.4943   10.4191 N.am    2  LIG2       -0.3120
     33 H           4.5640    3.3624   11.2529 H       2  LIG2        0.1465
     34 H           4.1020    4.2553   10.1554 H       2  LIG2        0.1465
     35 N           4.3665    2.8113    8.2322 N.am    2  LIG2       -0.1904
     36 H           4.5489    2.2370    7.6200 H       2  LIG2        0.1788
     37 N           3.8228    4.0223    7.9080 N.2     2  LIG2       -0.1765
     38 N           3.7515    2.1052    5.6869 N.ar    2  LIG2       -0.2534
     39 C           4.6138    2.5281    9.5434 C.2     2  LIG2        0.3165
     40 C           3.5461    4.3074    6.6758 C.2     2  LIG2        0.1143
     41 C           2.9366    5.6502    6.4841 C.ar    2  LIG2        0.0040
     42 C           3.2891    6.7119    7.3114 C.ar    2  LIG2       -0.0524
     43 H           3.9341    6.5897    7.9696 H       2  LIG2        0.0624
     44 C           2.6889    7.9438    7.1648 C.ar    2  LIG2       -0.0611
     45 H           2.9315    8.6466    7.7242 H       2  LIG2        0.0618
     46 C           1.7349    8.1395    6.1990 C.ar    2  LIG2       -0.0617
     47 H           1.3302    8.9709    6.1057 H       2  LIG2        0.0618
     48 C           1.3804    7.1032    5.3699 C.ar    2  LIG2       -0.0611
     49 H           0.7349    7.2355    4.7119 H       2  LIG2        0.0618
     50 C           1.9731    5.8759    5.5079 C.ar    2  LIG2       -0.0524
     51 H           1.7271    5.1823    4.9388 H       2  LIG2        0.0624
     52 C           3.7853    3.4301    5.4952 C.ar    2  LIG2        0.0912
     53 C           4.0448    3.9806    4.2478 C.ar    2  LIG2       -0.0341
     54 H           4.1126    4.9021    4.1446 H       2  LIG2        0.0639
     55 C           4.2005    3.1446    3.1703 C.ar    2  LIG2       -0.0583
     56 H           4.3540    3.4983    2.3247 H       2  LIG2        0.0619
     57 C           4.1304    1.7951    3.3462 C.ar    2  LIG2       -0.0436
     58 H           4.2189    1.2163    2.6234 H       2  LIG2        0.0633
     59 C           3.9263    1.3073    4.6209 C.ar    2  LIG2        0.0283
     60 H           3.9086    0.3858    4.7466 H       2  LIG2        0.0830
@<TRIPOS>BOND
     1     1     9    2
     2     3     2    1
     3     9     2   am
     4     9     5   am
     5     2     4    1
     6     6     5    1
     7     5     7    1
     8    13    12    1
     9    28    27    1
    10     7    10    2
    11    30    29    1
    12    26    25    1
    13    27    25   ar
    14    27    29   ar
    15    25    23   ar
    16    29     8   ar
    17    23    24    1
    18    23    22   ar
    19     8    22   ar
    20    22    10    1
    21    10    11    1
    22    12    11   ar
    23    12    14   ar
    24    15    14    1
    25    56    55    1
    26    11    20   ar
    27    14    16   ar
    28    58    57    1
    29    55    57   ar
    30    55    53   ar
    31    57    59   ar
    32    20    21    1
    33    20    18   ar
    34    16    17    1
    35    16    18   ar
    36    18    19    1
    37    54    53    1
    38    53    52   ar
    39    59    60    1
    40    59    38   ar
    41    49    48    1
    42    51    50    1
    43    48    50   ar
    44    48    46   ar
    45    52    38   ar
    46    52    40    1
    47    50    41   ar
    48    47    46    1
    49    46    44   ar
    50    41    40    1
    51    41    42   ar
    52    40    37    2
    53    44    42   ar
    54    44    45    1
    55    42    43    1
    56    36    35    1
    57    37    35    1
    58    35    39   am
    59    39    31    2
    60    39    32   am
    61    34    32    1
    62    32    33    1
