@<TRIPOS>MOLECULE
4-Bromo-2-((<i>E</i>)-{4-[(3,4-dimethylisoxazol-5- yl)sulfamoyl]phenyl}iminiomethyl)phenolate
 43 45 0 0 0
SMALL
GASTEIGER

@<TRIPOS>ATOM
      1 BR          1.4592   -3.2300    6.8833 Br      1  LIG1       -0.0503
      2 S           5.4086    7.1759   11.0808 S.O2    1  LIG1        0.0746
      3 O           5.5545    1.0070    5.7757 O.3     1  LIG1       -0.2871
      4 O           6.0841    8.1611   10.2970 O.2     1  LIG1       -0.1499
      5 O           4.2151    7.4980   11.7866 O.2     1  LIG1       -0.1499
      6 O           5.4187    5.8994   14.0849 O.2     1  LIG1       -0.3377
      7 N           4.6159    2.3390    7.7723 N.2     1  LIG1       -0.2105
      8 H           5.1943    2.1670    7.2550 H       1  LIG1        0.4529
      9 N           6.5191    6.6853   12.1922 N.pl3   1  LIG1       -0.1831
     10 H           7.1835    6.6312   11.8493 H       1  LIG1        0.1768
     11 N           5.3036    4.7162   14.8445 N.ar    1  LIG1       -0.0810
     12 C           3.6956    0.2680    7.0545 C.ar    1  LIG1        0.0860
     13 C           4.6476    0.1112    5.9992 C.ar    1  LIG1        0.1918
     14 C           4.5489   -1.0460    5.2057 C.ar    1  LIG1       -0.0131
     15 H           5.1349   -1.1586    4.4918 H       1  LIG1        0.0656
     16 C           3.6131   -2.0096    5.4604 C.ar    1  LIG1       -0.0441
     17 H           3.5750   -2.7731    4.9314 H       1  LIG1        0.0630
     18 C           2.7077   -1.8478    6.5196 C.ar    1  LIG1        0.0189
     19 C           2.7354   -0.7325    7.2897 C.ar    1  LIG1       -0.0312
     20 H           2.1170   -0.6292    7.9755 H       1  LIG1        0.0638
     21 C           3.7332    1.3905    7.9058 C.2     1  LIG1        0.1809
     22 H           3.1043    1.4570    8.5887 H       1  LIG1        0.1383
     23 C           4.7509    3.4759    8.5938 C.ar    1  LIG1        0.2062
     24 C           5.6889    4.4215    8.1985 C.ar    1  LIG1        0.0115
     25 H           6.1922    4.2806    7.4285 H       1  LIG1        0.0684
     26 C           5.8785    5.5650    8.9388 C.ar    1  LIG1       -0.0289
     27 H           6.5128    6.1956    8.6845 H       1  LIG1        0.0639
     28 C           5.1009    5.7615   10.0795 C.ar    1  LIG1        0.1090
     29 C           4.1713    4.8318   10.4705 C.ar    1  LIG1       -0.0289
     30 H           3.6579    4.9792   11.2328 H       1  LIG1        0.0639
     31 C           3.9970    3.6811    9.7372 C.ar    1  LIG1        0.0115
     32 H           3.3757    3.0440   10.0083 H       1  LIG1        0.0684
     33 C           6.2177    5.6192   13.0329 C.ar    1  LIG1        0.2399
     34 C           6.6279    4.3442   13.0623 C.ar    1  LIG1        0.0350
     35 C           6.0258    3.8256   14.2274 C.ar    1  LIG1        0.0854
     36 C           7.4996    3.6240   12.1104 C.3     1  LIG1       -0.0330
     37 H           7.1553    2.7392   11.9683 H       1  LIG1        0.0280
     38 H           8.3887    3.5670   12.4707 H       1  LIG1        0.0280
     39 H           7.5232    4.0972   11.2758 H       1  LIG1        0.0280
     40 C           6.1606    2.4155   14.7347 C.3     1  LIG1       -0.0188
     41 H           5.3063    2.1049   15.0438 H       1  LIG1        0.0294
     42 H           6.7908    2.3939   15.4586 H       1  LIG1        0.0294
     43 H           6.4680    1.8485   14.0241 H       1  LIG1        0.0294
@<TRIPOS>BOND
     1    15    14    1
     2    17    16    1
     3    14    16   ar
     4    14    13   ar
     5    16    18   ar
     6     3    13    1
     7    13    12   ar
     8    18     1    1
     9    18    19   ar
    10    12    19   ar
    11    12    21    1
    12     8     7    1
    13    19    20    1
    14    25    24    1
    15     7    21    2
    16     7    23    1
    17    21    22    1
    18    24    23   ar
    19    24    26   ar
    20    23    31   ar
    21    27    26    1
    22    26    28   ar
    23    31    32    1
    24    31    29   ar
    25    28    29   ar
    26    28     2    1
    27     4     2    2
    28    29    30    1
    29     2     5    2
    30     2     9    1
    31    39    36    1
    32    10     9    1
    33    37    36    1
    34    36    38    1
    35    36    34    1
    36     9    33    1
    37    33    34   ar
    38    33     6   ar
    39    34    35   ar
    40    43    40    1
    41     6    11   ar
    42    35    40    1
    43    35    11   ar
    44    40    41    1
    45    40    42    1
