@<TRIPOS>MOLECULE
(S)-1-hydroxypropan-2-aminium (2R,3R)-3-carboxy -2,3-dihydroxypropanoate monohydrate
 33 30 0 0 0
SMALL
GASTEIGER

@<TRIPOS>ATOM
      1 O           4.1740    7.0195   14.9224 O.3     1  ALA1       -0.3895
      2 H           4.6027    7.6163   15.4285 H       1  ALA1        0.2097
      3 O           1.1001    3.0404   17.8599 O.co2   1  LIG1       -0.2433
      4 O           3.1981    2.3329   17.7608 O.co2   1  LIG1       -0.2433
      5 O           0.1059    0.5421   18.1853 O.3     1  LIG1       -0.3778
      6 H           0.0151    0.8471   19.0160 H       1  LIG1        0.2106
      7 O           2.2921    0.4233   20.0948 O.3     1  LIG1       -0.3780
      8 H           3.0584    0.6623   20.2659 H       1  LIG1        0.2106
      9 O           1.9970   -2.2156   17.7046 O.3     1  LIG1       -0.4788
     10 H           1.6422   -2.9803   17.7681 H       1  LIG1        0.2951
     11 O           1.3831   -2.0883   19.8472 O.2     1  LIG1       -0.2480
     12 N           4.6155    4.5444   16.2897 N.4     1  ALA1        0.2222
     13 H1          4.2260    3.9275   15.7101 H       1  ALA1        0.1997
     14 H2          5.0094    4.0738   17.0159 H       1  ALA1        0.1997
     15 H3          3.9247    5.1289   16.5858 H       1  ALA1        0.1997
     16 CB          6.7473    4.2687   15.1000 C.3     1  ALA1       -0.0196
     17 HB1         6.3179    3.6495   14.5046 H       1  ALA1        0.0285
     18 HB2         7.1255    3.7897   15.8412 H       1  ALA1        0.0285
     19 HB3         7.4441    4.7330   14.6299 H       1  ALA1        0.0285
     20 CA          5.7311    5.2659   15.6094 C.3     1  ALA1       -0.0036
     21 HA          6.1658    5.8605   16.2559 H       1  ALA1        0.0870
     22 C           5.1594    6.0992   14.4859 C.3     1  ALA1        0.0865
     23 H1          5.8795    6.5882   14.0590 H       1  ALA1        0.0613
     24 H2          4.7684    5.5093   13.8237 H       1  ALA1        0.0613
     25 C           1.9669    2.1324   17.8345 C.2     1  LIG1        0.3871
     26 C           1.4810    0.6708   17.8582 C.3     1  LIG1        0.1922
     27 H           1.6015    0.3080   16.9561 H       1  LIG1        0.0744
     28 C           2.3578   -0.1540   18.8025 C.3     1  LIG1        0.1880
     29 H           3.2844   -0.1425   18.4837 H       1  LIG1        0.0743
     30 C           1.8561   -1.5879   18.8627 C.2     1  LIG1        0.3368
     31 O           5.3673    1.0951   16.5302 O.3     2  HOH2       -0.4105
     32 H           4.7684    1.4632   17.0004 H       0  HOH0        0.2052
     33 H           6.0415    0.9164   16.9407 H       0  HOH0        0.2052
@<TRIPOS>BOND
     1    24    22    1
     2    23    22    1
     3    22     1    1
     4    22    20    1
     5    17    16    1
     6    19    16    1
     7     1     2    1
     8    16    20    1
     9    16    18    1
    10    20    21    1
    11    20    12    1
    12    13    12    1
    13    12    15    1
    14    12    14    1
    15    31    33    1
    16    31    32    1
    17    27    26    1
    18     9    10    1
    19     9    30    1
    20     4    25   ar
    21    25    26    1
    22    25     3   ar
    23    26     5    1
    24    26    28    1
    25     5     6    1
    26    29    28    1
    27    28    30    1
    28    28     7    1
    29    30    11    2
    30     7     8    1
