@<TRIPOS>MOLECULE
Ethyl 3-(6-phenyl-4\l^4^-1,2-dithiolo[1,5-b][1,2,4]dithiazol-2-yl)propanoate
 36 38 0 0 0
SMALL
GASTEIGER

@<TRIPOS>ATOM
      1 S           0.7107   14.6120   -1.4115 S.3     1  LIG1       -0.0351
      2 S           2.0811   13.7095    0.2878 S.3     1  LIG1       -0.0323
      3 S           3.4153   12.6801    1.8391 S.3     1  LIG1       -0.0499
      4 N           0.6874   11.9777   -1.2946 N.2     1  LIG1       -0.2370
      5 O          -2.7310   12.2627   -4.9199 O.2     1  LIG1       -0.2508
      6 O          -2.0722   10.1290   -5.0130 O.3     1  LIG1       -0.4649
      7 C           0.2343   13.0539   -1.8976 C.2     1  LIG1        0.0866
      8 C           1.5589   12.1287   -0.2727 C.2     1  LIG1        0.1095
      9 C           2.0791   10.9949    0.3581 C.2     1  LIG1       -0.0142
     10 H           1.7927   10.1339    0.0743 H       1  LIG1        0.0656
     11 C           2.9915   11.0955    1.3746 C.2     1  LIG1        0.0287
     12 C          -0.7208   12.9098   -3.0465 C.3     1  LIG1        0.0066
     13 H          -0.3201   13.3279   -3.8499 H       1  LIG1        0.0339
     14 H          -1.5530   13.4025   -2.8339 H       1  LIG1        0.0339
     15 C          -1.0735   11.4675   -3.3705 C.3     1  LIG1        0.0508
     16 H          -0.2472   10.9736   -3.6008 H       1  LIG1        0.0381
     17 H          -1.4695   11.0405   -2.5695 H       1  LIG1        0.0381
     18 C          -2.0420   11.3706   -4.5115 C.2     1  LIG1        0.3074
     19 C          -2.9942    9.8889   -6.1144 C.3     1  LIG1        0.0896
     20 H          -2.8263   10.5305   -6.8499 H       1  LIG1        0.0694
     21 H          -3.9297    9.9971   -5.8098 H       1  LIG1        0.0694
     22 C          -2.7590    8.4864   -6.5833 C.3     1  LIG1       -0.0306
     23 H          -3.3485    8.2928   -7.3415 H       1  LIG1        0.0262
     24 H          -2.9496    7.8621   -5.8535 H       1  LIG1        0.0262
     25 H          -1.8246    8.3877   -6.8630 H       1  LIG1        0.0262
     26 C           3.6295    9.9394    2.0386 C.ar    1  LIG1       -0.0107
     27 C           3.6152    8.6806    1.4423 C.ar    1  LIG1       -0.0535
     28 H           3.1711    8.5587    0.6118 H       1  LIG1        0.0624
     29 C           4.2388    7.6078    2.0456 C.ar    1  LIG1       -0.0612
     30 H           4.2108    6.7534    1.6322 H       1  LIG1        0.0618
     31 C           4.9011    7.7643    3.2412 C.ar    1  LIG1       -0.0617
     32 H           5.3324    7.0239    3.6533 H       1  LIG1        0.0618
     33 C           4.9307    8.9983    3.8303 C.ar    1  LIG1       -0.0612
     34 H           5.3896    9.1154    4.6540 H       1  LIG1        0.0618
     35 C           4.3003   10.0731    3.2403 C.ar    1  LIG1       -0.0535
     36 H           4.3270   10.9208    3.6664 H       1  LIG1        0.0624
@<TRIPOS>BOND
     1    23    22    1
     2    25    22    1
     3    20    19    1
     4    22    19    1
     5    22    24    1
     6    19    21    1
     7    19     6    1
     8     6    18    1
     9     5    18    2
    10    18    15    1
    11    13    12    1
    12    16    15    1
    13    15    12    1
    14    15    17    1
    15    12    14    1
    16    12     7    1
    17     7     1    1
    18     7     4    2
    19     1     2    1
    20     4     8    1
    21     8     2    1
    22     8     9    2
    23    10     9    1
    24     2     3    1
    25     9    11    1
    26    28    27    1
    27    11     3    2
    28    11    26    1
    29    27    26   ar
    30    27    29   ar
    31    30    29    1
    32    26    35   ar
    33    29    31   ar
    34    35    36    1
    35    35    33   ar
    36    31    32    1
    37    31    33   ar
    38    33    34    1
