@<TRIPOS>MOLECULE
(<i>R</i>)-1-Phenylethanaminium (<i>S</i>)-4-chloromandelate
 39 39 0 0 0
SMALL
GASTEIGER

@<TRIPOS>ATOM
      1 CL          4.9110    3.5541   13.3693 Cl      1  LIG1       -0.0835
      2 C           5.1322    3.3970   11.6479 C.ar    1  LIG1        0.0410
      3 C           4.7288    4.4166   10.8186 C.ar    1  LIG1       -0.0430
      4 H           4.2908    5.1814   11.1731 H       1  LIG1        0.0632
      5 C           4.9696    4.3134    9.4606 C.ar    1  LIG1       -0.0542
      6 H           4.6909    5.0154    8.8845 H       1  LIG1        0.0622
      7 C           5.6074    3.2085    8.9251 C.ar    1  LIG1       -0.0082
      8 C           5.9970    2.1924    9.7815 C.ar    1  LIG1       -0.0542
      9 H           6.4347    1.4253    9.4294 H       1  LIG1        0.0622
     10 C           5.7587    2.2777   11.1452 C.ar    1  LIG1       -0.0430
     11 H           6.0245    1.5734   11.7245 H       1  LIG1        0.0632
     12 C           5.8024    3.1325    7.4216 C.3     1  LIG1        0.1810
     13 H           5.9945    4.0535    7.0829 H       1  LIG1        0.0763
     14 O           4.6154    2.6622    6.7881 O.3     1  LIG1       -0.3761
     15 H           4.0967    3.3082    6.6499 H       1  LIG1        0.2110
     16 C           6.9591    2.2293    7.0258 C.2     1  LIG1        0.3884
     17 O           6.7189    1.0599    6.6694 O.co2   1  LIG1       -0.2431
     18 O           8.1121    2.7498    7.0981 O.co2   1  LIG1       -0.2431
     19 N           8.4628   -0.7141    5.5427 N.4     2  LIG2        0.2239
     20 H           8.2942   -1.4910    5.9853 H       2  LIG2        0.2000
     21 H           7.9655   -0.0438    5.9050 H       2  LIG2        0.2000
     22 H           9.3461   -0.5101    5.6155 H       2  LIG2        0.2000
     23 C           6.6779   -1.4242    4.0019 C.3     2  LIG2       -0.0173
     24 H           6.6618   -2.3486    4.3271 H       2  LIG2        0.0288
     25 H           6.3775   -1.4005    3.0690 H       2  LIG2        0.0288
     26 H           6.0813   -0.8743    4.5508 H       2  LIG2        0.0288
     27 C           8.1035   -0.8766    4.0927 C.3     2  LIG2       -0.0014
     28 H           8.1207    0.0259    3.6625 H       2  LIG2        0.0900
     29 C           9.1051   -1.7590    3.3823 C.ar    2  LIG2       -0.0002
     30 C           9.5199   -1.4357    2.1054 C.ar    2  LIG2       -0.0533
     31 H           9.2072   -0.6357    1.7003 H       2  LIG2        0.0622
     32 C          10.3888   -2.2628    1.4032 C.ar    2  LIG2       -0.0613
     33 H          10.6520   -2.0380    0.5185 H       2  LIG2        0.0618
     34 C          10.8691   -3.4137    1.9994 C.ar    2  LIG2       -0.0617
     35 H          11.4691   -3.9785    1.5266 H       2  LIG2        0.0618
     36 C          10.4768   -3.7440    3.2842 C.ar    2  LIG2       -0.0613
     37 H          10.8144   -4.5295    3.6980 H       2  LIG2        0.0618
     38 C           9.5919   -2.9279    3.9631 C.ar    2  LIG2       -0.0533
     39 H           9.3110   -3.1670    4.8390 H       2  LIG2        0.0622
@<TRIPOS>BOND
     1    33    32    1
     2    32    34   ar
     3    32    30   ar
     4    35    34    1
     5    31    30    1
     6    34    36   ar
     7    30    29   ar
     8    25    23    1
     9    36    37    1
    10    36    38   ar
    11    29    38   ar
    12    29    27    1
    13    28    27    1
    14    38    39    1
    15    23    27    1
    16    23    24    1
    17    23    26    1
    18    27    19    1
    19    19    22    1
    20    19    21    1
    21    19    20    1
    22    15    14    1
    23    17    16   ar
    24    14    12    1
    25    16    18   ar
    26    16    12    1
    27    13    12    1
    28    12     7    1
    29     6     5    1
    30     7     5   ar
    31     7     8   ar
    32     9     8    1
    33     5     3   ar
    34     8    10   ar
    35     3     4    1
    36     3     2   ar
    37    10     2   ar
    38    10    11    1
    39     2     1    1
