@<TRIPOS>MOLECULE
2-(1,3-Dithian-2-ylidene)-1-phenylbutane-1,3-dione
 29 30 0 0 0
SMALL
GASTEIGER

@<TRIPOS>ATOM
      1 S           2.9876    0.9178    2.3261 S.3     1  LIG1       -0.1169
      2 S           0.5705    2.2042    1.2714 S.3     1  LIG1       -0.1169
      3 O           2.2298   -1.1541    3.9519 O.2     1  LIG1       -0.2865
      4 O          -1.5687    1.1888    2.5302 O.2     1  LIG1       -0.2922
      5 C           1.1708   -0.6008    4.2068 C.2     1  LIG1        0.1980
      6 C           0.4817    0.2502    3.2015 C.2     1  LIG1        0.0839
      7 C          -0.9854    0.2513    3.0784 C.2     1  LIG1        0.1654
      8 C          -1.7635   -0.9513    3.5082 C.3     1  LIG1       -0.0012
      9 H          -2.7004   -0.7881    3.3799 H       1  LIG1        0.0309
     10 H          -1.5928   -1.1277    4.4364 H       1  LIG1        0.0309
     11 H          -1.4956   -1.7097    2.9837 H       1  LIG1        0.0309
     12 C           1.2449    1.0251    2.3700 C.2     1  LIG1        0.0551
     13 C           3.2435    2.4570    1.4201 C.3     1  LIG1        0.0082
     14 H           3.2384    3.2099    2.0322 H       1  LIG1        0.0388
     15 H           4.0990    2.4377    0.9643 H       1  LIG1        0.0388
     16 C           2.1321    2.5932    0.4260 C.3     1  LIG1        0.0082
     17 H           2.2707    1.9825   -0.3153 H       1  LIG1        0.0388
     18 H           2.1056    3.4976    0.0781 H       1  LIG1        0.0388
     19 C           0.6283   -0.6719    5.5996 C.ar    1  LIG1        0.0224
     20 C           1.0098   -1.7268    6.4273 C.ar    1  LIG1       -0.0509
     21 H           1.5369   -2.4129    6.0866 H       1  LIG1        0.0625
     22 C           0.6119   -1.7604    7.7468 C.ar    1  LIG1       -0.0611
     23 H           0.8540   -2.4774    8.2878 H       1  LIG1        0.0618
     24 C          -0.1491   -0.7253    8.2693 C.ar    1  LIG1       -0.0617
     25 H          -0.3971   -0.7369    9.1654 H       1  LIG1        0.0618
     26 C          -0.5375    0.3191    7.4601 C.ar    1  LIG1       -0.0611
     27 H          -1.0605    1.0058    7.8064 H       1  LIG1        0.0618
     28 C          -0.1472    0.3478    6.1269 C.ar    1  LIG1       -0.0509
     29 H          -0.4084    1.0566    5.5839 H       1  LIG1        0.0625
@<TRIPOS>BOND
     1    17    16    1
     2    18    16    1
     3    16     2    1
     4    16    13    1
     5    15    13    1
     6     2    12    1
     7    13    14    1
     8    13     1    1
     9     1    12    1
    10    12     6    2
    11     4     7    2
    12    11     8    1
    13     7     6    1
    14     7     8    1
    15     6     5    1
    16     9     8    1
    17     8    10    1
    18     3     5    2
    19     5    19    1
    20    29    28    1
    21    19    28   ar
    22    19    20   ar
    23    21    20    1
    24    28    26   ar
    25    20    22   ar
    26    26    27    1
    27    26    24   ar
    28    22    24   ar
    29    22    23    1
    30    24    25    1
