@<TRIPOS>MOLECULE
1,1'-(Butane-1,4-diyl)diimidazolium dinitrate
 19 18 0 0 0
SMALL
GASTEIGER

@<TRIPOS>ATOM
      1 N           2.0980    6.9337    6.9895 N.pl3   1  LIG1       -0.3137
      2 N           1.1164    7.6129    8.7697 N.pl3   1  LIG1       -0.3280
      3 H           0.8086    7.6319    9.5719 H       1  LIG1        0.1474
      4 N           3.6562    8.8488    3.0551 N.pl3   2  LIG2        0.2601
      5 O           4.2999    9.6683    2.4009 O.2     2  LIG2       -0.0867
      6 O           3.2995    7.7722    2.5281 O.2     2  LIG2       -0.0867
      7 O           3.3758    9.0700    4.2248 O.2     2  LIG2       -0.0867
      8 C           1.7811    6.6141    8.2271 C.3     1  LIG1        0.1226
      9 H           1.9927    5.8133    8.6494 H       1  LIG1        0.0744
     10 C           0.9975    8.6120    7.8494 C.2     1  LIG1        0.0047
     11 H           0.5707    9.4296    7.9712 H       1  LIG1        0.0791
     12 C           1.6137    8.1903    6.7350 C.2     1  LIG1        0.0073
     13 H           1.6958    8.6623    5.9385 H       1  LIG1        0.0793
     14 C           2.7816    6.0670    6.0227 C.3     1  LIG1        0.0136
     15 H           3.0748    5.2578    6.4704 H       1  LIG1        0.0464
     16 H           3.5680    6.5229    5.6845 H       1  LIG1        0.0464
     17 C           1.8859    5.6993    4.8679 C.3     1  LIG1       -0.0358
     18 H           1.6063    6.5062    4.4070 H       1  LIG1        0.0281
     19 H           1.0913    5.2557    5.2052 H       1  LIG1        0.0281
@<TRIPOS>BOND
     1     5     4    2
     2     6     4    2
     3     4     7    1
     4    18    17    1
     5    17    19    1
     6    17    14    1
     7    16    14    1
     8    13    12    1
     9    14    15    1
    10    14     1    1
    11    12     1    1
    12    12    10    2
    13     1     8    1
    14    10    11    1
    15    10     2    1
    16     8     9    1
    17     8     2    1
    18     2     3    1
