@<TRIPOS>MOLECULE
N^2^,N^2'^-Bis(2,2-dimethylpropanoyl)benzene-1,3-dicarbohydrazide
 52 52 0 0 0
SMALL
GASTEIGER

@<TRIPOS>ATOM
      1 O           3.9104    0.8359    4.3027 O.2     1  LIG1       -0.2737
      2 O           2.0869    3.2445    6.2210 O.2     1  LIG1       -0.2687
      3 O          -0.2952    3.3693   10.7194 O.2     1  LIG1       -0.2687
      4 O          -2.0979    1.0703   12.5343 O.2     1  LIG1       -0.2737
      5 N           2.0335    1.9594    3.7982 N.am    1  LIG1       -0.2337
      6 N           1.4368    1.4768    4.9616 N.am    1  LIG1       -0.2304
      7 N           0.4117    1.7005   12.0828 N.am    1  LIG1       -0.2304
      8 N          -0.2786    2.2035   13.1847 N.am    1  LIG1       -0.2337
      9 C           1.2380   -0.0721    7.4106 C.ar    1  LIG1       -0.0495
     10 H           1.4653   -0.5644    6.6556 H       1  LIG1        0.0625
     11 C           0.8825   -0.7235    8.5883 C.ar    1  LIG1       -0.0603
     12 H           0.8647   -1.6531    8.6135 H       1  LIG1        0.0618
     13 C           0.5552    0.0027    9.7241 C.ar    1  LIG1       -0.0495
     14 H           0.3219   -0.4393   10.5083 H       1  LIG1        0.0625
     15 C           0.5762    1.3993    9.6888 C.ar    1  LIG1        0.0389
     16 C           0.9265    2.0506    8.5089 C.ar    1  LIG1       -0.0374
     17 H           0.9426    2.9800    8.4821 H       1  LIG1        0.0633
     18 C           1.2534    1.3222    7.3666 C.ar    1  LIG1        0.0389
     19 C           1.6534    2.0963    6.1479 C.2     1  LIG1        0.2602
     20 C           3.2975    1.5484    3.5166 C.2     1  LIG1        0.2345
     21 C           3.8957    2.0064    2.1781 C.3     1  LIG1        0.0400
     22 C           5.1448    1.1721    1.9171 C.3     1  LIG1       -0.0517
     23 H           5.7892    1.3359    2.6100 H       1  LIG1        0.0239
     24 H           5.5202    1.4148    1.0669 H       1  LIG1        0.0239
     25 H           4.9120    0.2413    1.9101 H       1  LIG1        0.0239
     26 C           4.2641    3.4983    2.2474 C.3     1  LIG1       -0.0517
     27 H           4.9965    3.6190    2.8558 H       1  LIG1        0.0239
     28 H           3.5067    4.0017    2.5537 H       1  LIG1        0.0239
     29 H           4.5205    3.8051    1.3741 H       1  LIG1        0.0239
     30 C           2.8913    1.7833    1.0379 C.3     1  LIG1       -0.0517
     31 H           2.6770    0.8489    0.9781 H       1  LIG1        0.0239
     32 H           3.2780    2.0761    0.2100 H       1  LIG1        0.0239
     33 H           2.0916    2.2846    1.2137 H       1  LIG1        0.0239
     34 C           0.1732    2.2436   10.8601 C.2     1  LIG1        0.2602
     35 C          -1.5761    1.8342   13.3388 C.2     1  LIG1        0.2345
     36 C          -2.3231    2.4016   14.5491 C.3     1  LIG1        0.0400
     37 C          -3.6974    1.7578   14.6085 C.3     1  LIG1       -0.0517
     38 H          -3.6018    0.8072   14.7024 H       1  LIG1        0.0239
     39 H          -4.1773    1.9539   13.8011 H       1  LIG1        0.0239
     40 H          -4.1817    2.1058   15.3613 H       1  LIG1        0.0239
     41 C          -2.4882    3.9223   14.3924 C.3     1  LIG1       -0.0517
     42 H          -3.0047    4.1089   13.6048 H       1  LIG1        0.0239
     43 H          -1.6232    4.3308   14.3115 H       1  LIG1        0.0239
     44 H          -2.9385    4.2757   15.1633 H       1  LIG1        0.0239
     45 C          -1.5367    2.1014   15.8341 C.3     1  LIG1       -0.0517
     46 H          -1.5003    1.1527   15.9724 H       1  LIG1        0.0239
     47 H          -1.9737    2.5169   16.5818 H       1  LIG1        0.0239
     48 H          -0.6449    2.4469   15.7522 H       1  LIG1        0.0239
     49 H           1.5822    2.5675    3.3082 H       1  LIG1        0.1728
     50 H           1.1679    0.6776    4.9127 H       1  LIG1        0.1731
     51 H           0.6928    0.8757   12.1743 H       1  LIG1        0.1731
     52 H           0.0924    2.8073   13.7038 H       1  LIG1        0.1728
@<TRIPOS>BOND
     1    32    30    1
     2    31    30    1
     3    30    33    1
     4    30    21    1
     5    24    22    1
     6    29    26    1
     7    25    22    1
     8    22    21    1
     9    22    23    1
    10    21    26    1
    11    21    20    1
    12    26    28    1
    13    26    27    1
    14    49     5    1
    15    20     5   am
    16    20     1    2
    17     5     6    1
    18    50     6    1
    19     6    19   am
    20    19     2    2
    21    19    18    1
    22    10     9    1
    23    18     9   ar
    24    18    16   ar
    25     9    11   ar
    26    17    16    1
    27    16    15   ar
    28    11    12    1
    29    11    13   ar
    30    15    13   ar
    31    15    34    1
    32    13    14    1
    33     3    34    2
    34    34     7   am
    35     7    51    1
    36     7     8    1
    37     4    35    2
    38     8    35   am
    39     8    52    1
    40    35    36    1
    41    42    41    1
    42    39    37    1
    43    43    41    1
    44    41    36    1
    45    41    44    1
    46    36    37    1
    47    36    45    1
    48    37    38    1
    49    37    40    1
    50    48    45    1
    51    45    46    1
    52    45    47    1
