@<TRIPOS>MOLECULE
<i>N</i>-(2,6-Dichlorophenyl)benzamide
 52 54 0 0 0
SMALL
GASTEIGER

@<TRIPOS>ATOM
      1 C           2.7707   12.1967    2.4974 C.2     1  LIG1        0.2483
      2 C           3.0060   13.6485    2.2347 C.ar    1  LIG1        0.0370
      3 C           2.1768   14.5784    2.8001 C.ar    1  LIG1       -0.0496
      4 H           1.5108   14.3089    3.3896 H       1  LIG1        0.0625
      5 C           2.3309   15.9272    2.4924 C.ar    1  LIG1       -0.0610
      6 H           1.7679   16.5567    2.8811 H       1  LIG1        0.0618
      7 C           3.3038   16.3281    1.6246 C.ar    1  LIG1       -0.0617
      8 H           3.3741   17.2247    1.3853 H       1  LIG1        0.0618
      9 C           4.1533   15.4321    1.1182 C.ar    1  LIG1       -0.0610
     10 H           4.8415   15.7119    0.5600 H       1  LIG1        0.0618
     11 C           4.0178   14.0918    1.4183 C.ar    1  LIG1       -0.0496
     12 H           4.6198   13.4791    1.0629 H       1  LIG1        0.0625
     13 C           3.7784   10.0366    2.8673 C.ar    1  LIG1        0.0707
     14 C           3.8679    9.6827    4.2069 C.ar    1  LIG1        0.0636
     15 C           3.8782    8.3648    4.6229 C.ar    1  LIG1       -0.0415
     16 H           3.9525    8.1536    5.5265 H       1  LIG1        0.0633
     17 C           3.7770    7.3754    3.6836 C.ar    1  LIG1       -0.0589
     18 H           3.7780    6.4858    3.9533 H       1  LIG1        0.0618
     19 C           3.6728    7.6794    2.3475 C.ar    1  LIG1       -0.0415
     20 H           3.6091    6.9974    1.7187 H       1  LIG1        0.0633
     21 C           3.6645    9.0094    1.9387 C.ar    1  LIG1        0.0636
     22 N           3.8558   11.4000    2.4751 N.am    1  LIG1       -0.2791
     23 H           4.6398   11.7469    2.4132 H       1  LIG1        0.1552
     24 O           1.6546   11.7463    2.7056 O.2     1  LIG1       -0.2699
     25 CL          3.9189   10.9499    5.3997 Cl      1  LIG1       -0.0816
     26 CL          3.5234    9.3926    0.2518 Cl      1  LIG1       -0.0816
     27 C           7.8051   11.6420    2.5400 C.2     2  LIG2        0.2483
     28 C           8.0784   10.3382    1.8576 C.ar    2  LIG2        0.0370
     29 C           7.2700    9.2545    2.1286 C.ar    2  LIG2       -0.0496
     30 H           6.5791    9.3317    2.7467 H       2  LIG2        0.0625
     31 C           7.4870    8.0485    1.4774 C.ar    2  LIG2       -0.0610
     32 H           6.9476    7.3156    1.6690 H       2  LIG2        0.0618
     33 C           8.4884    7.9303    0.5563 C.ar    2  LIG2       -0.0617
     34 H           8.6178    7.1222    0.1142 H       2  LIG2        0.0618
     35 C           9.2992    8.9896    0.2811 C.ar    2  LIG2       -0.0610
     36 H           9.9834    8.9024   -0.3426 H       2  LIG2        0.0618
     37 C           9.1041   10.2001    0.9351 C.ar    2  LIG2       -0.0496
     38 H           9.6630   10.9213    0.7534 H       2  LIG2        0.0625
     39 C           8.8136   13.6861    3.3721 C.ar    2  LIG2        0.0707
     40 C           8.9689   13.9226    4.7288 C.ar    2  LIG2        0.0636
     41 C           8.9978   15.2031    5.2479 C.ar    2  LIG2       -0.0415
     42 H           9.1188   15.3389    6.1602 H       2  LIG2        0.0633
     43 C           8.8453   16.2657    4.4044 C.ar    2  LIG2       -0.0589
     44 H           8.8596   17.1300    4.7491 H       2  LIG2        0.0618
     45 C           8.6707   16.0781    3.0541 C.ar    2  LIG2       -0.0415
     46 H           8.5628   16.8077    2.4888 H       2  LIG2        0.0633
     47 C           8.6559   14.7955    2.5483 C.ar    2  LIG2        0.0636
     48 N           8.8876   12.3785    2.8310 N.am    2  LIG2       -0.2791
     49 H           9.6663   12.0925    2.6840 H       2  LIG2        0.1552
     50 O           6.6719   12.0196    2.8157 O.2     2  LIG2       -0.2699
     51 CL          9.1265   12.5731    5.8061 Cl      2  LIG2       -0.0816
     52 CL          8.4615   14.5538    0.8446 Cl      2  LIG2       -0.0816
@<TRIPOS>BOND
     1    36    35    1
     2    34    33    1
     3    26    21    1
     4    35    33   ar
     5    35    37   ar
     6    33    31   ar
     7    10     9    1
     8    38    37    1
     9    52    47    1
    10    37    28   ar
    11    12    11    1
    12     9    11   ar
    13     9     7   ar
    14     8     7    1
    15    11     2   ar
    16    31    32    1
    17    31    29   ar
    18     7     5   ar
    19    20    19    1
    20    28    29   ar
    21    28    27    1
    22    21    19   ar
    23    21    13   ar
    24    29    30    1
    25     2     1    1
    26     2     3   ar
    27    19    17   ar
    28    23    22    1
    29    22     1   am
    30    22    13    1
    31    46    45    1
    32     5     3   ar
    33     5     6    1
    34     1    24    2
    35    27    50    2
    36    27    48   am
    37    47    45   ar
    38    47    39   ar
    39    49    48    1
    40     3     4    1
    41    48    39    1
    42    13    14   ar
    43    45    43   ar
    44    39    40   ar
    45    17    18    1
    46    17    15   ar
    47    14    15   ar
    48    14    25    1
    49    43    44    1
    50    43    41   ar
    51    15    16    1
    52    40    41   ar
    53    40    51    1
    54    41    42    1
