@<TRIPOS>MOLECULE
(4a<i>R</i>,8a<i>R</i>)-2,3-Diphenyl-4a,5,6,7,8,8a-hexahydroquinoxaline
 42 45 0 0 0
SMALL
GASTEIGER

@<TRIPOS>ATOM
      1 C           4.4772   10.1471    1.8183 C.3     1  LIG1        0.0738
      2 H           3.8483    9.6848    2.4103 H       1  LIG1        0.0565
      3 C           4.0474   11.5994    1.6877 C.3     1  LIG1       -0.0285
      4 H           3.1322   11.6393    1.3700 H       1  LIG1        0.0286
      5 H           4.6116   12.0474    1.0385 H       1  LIG1        0.0286
      6 C           4.1520   12.3139    3.0313 C.3     1  LIG1       -0.0510
      7 H           3.9400   13.2534    2.9103 H       1  LIG1        0.0266
      8 H           3.4995   11.9396    3.6429 H       1  LIG1        0.0266
      9 C           5.5257   12.1921    3.6370 C.3     1  LIG1       -0.0510
     10 H           5.5263   12.5988    4.5183 H       1  LIG1        0.0266
     11 H           6.1642   12.6712    3.0861 H       1  LIG1        0.0266
     12 C           5.9504   10.7404    3.7538 C.3     1  LIG1       -0.0285
     13 H           6.8606   10.6951    4.0861 H       1  LIG1        0.0286
     14 H           5.3755   10.2855    4.3883 H       1  LIG1        0.0286
     15 C           5.8666   10.0486    2.4095 C.3     1  LIG1        0.0738
     16 H           6.4916   10.4903    1.7985 H       1  LIG1        0.0565
     17 C           5.9083    7.8778    1.5657 C.2     1  LIG1        0.0914
     18 C           6.1991    6.4223    1.6718 C.ar    1  LIG1        0.0020
     19 C           7.3804    6.0069    2.2916 C.ar    1  LIG1       -0.0525
     20 H           7.9834    6.6336    2.6190 H       1  LIG1        0.0624
     21 C           7.6476    4.6452    2.4136 C.ar    1  LIG1       -0.0611
     22 H           8.4318    4.3649    2.8278 H       1  LIG1        0.0618
     23 C           6.7610    3.7123    1.9253 C.ar    1  LIG1       -0.0617
     24 H           6.9467    2.8047    2.0037 H       1  LIG1        0.0618
     25 C           5.6090    4.1276    1.3262 C.ar    1  LIG1       -0.0611
     26 H           5.0031    3.4963    1.0110 H       1  LIG1        0.0618
     27 C           5.3294    5.4714    1.1802 C.ar    1  LIG1       -0.0525
     28 H           4.5503    5.7372    0.7473 H       1  LIG1        0.0624
     29 C           5.1663    8.4411    0.3720 C.2     1  LIG1        0.0914
     30 C           5.3075    7.8544   -0.9804 C.ar    1  LIG1        0.0020
     31 C           6.4612    7.1863   -1.3709 C.ar    1  LIG1       -0.0525
     32 H           7.1323    7.0202   -0.7491 H       1  LIG1        0.0624
     33 C           6.6154    6.7687   -2.6773 C.ar    1  LIG1       -0.0611
     34 H           7.3928    6.3271   -2.9322 H       1  LIG1        0.0618
     35 C           5.6287    7.0010   -3.6031 C.ar    1  LIG1       -0.0617
     36 H           5.7451    6.7230   -4.4835 H       1  LIG1        0.0618
     37 C           4.4721    7.6411   -3.2368 C.ar    1  LIG1       -0.0611
     38 H           3.8021    7.7919   -3.8645 H       1  LIG1        0.0618
     39 C           4.3084    8.0616   -1.9258 C.ar    1  LIG1       -0.0525
     40 H           3.5203    8.4880   -1.6758 H       1  LIG1        0.0624
     41 N           6.2626    8.6357    2.5300 N.2     1  LIG1       -0.2758
     42 N           4.4524    9.4936    0.4995 N.2     1  LIG1       -0.2758
@<TRIPOS>BOND
     1    36    35    1
     2    38    37    1
     3    35    37   ar
     4    35    33   ar
     5    37    39   ar
     6    34    33    1
     7    33    31   ar
     8    39    40    1
     9    39    30   ar
    10    31    30   ar
    11    31    32    1
    12    30    29    1
    13    29    42    2
    14    29    17    1
    15    42     1    1
    16    28    27    1
    17    26    25    1
    18     5     3    1
    19    27    25   ar
    20    27    18   ar
    21    25    23   ar
    22     4     3    1
    23    17    18    1
    24    17    41    2
    25    18    19   ar
    26     3     1    1
    27     3     6    1
    28    16    15    1
    29     1    15    1
    30     1     2    1
    31    23    24    1
    32    23    21   ar
    33    19    21   ar
    34    19    20    1
    35    15    41    1
    36    15    12    1
    37    21    22    1
    38     7     6    1
    39     6     9    1
    40     6     8    1
    41    11     9    1
    42     9    12    1
    43     9    10    1
    44    12    13    1
    45    12    14    1
