@<TRIPOS>MOLECULE
3-(2,4-dichloroanilino)isobenzofuran-1(3<i>H</i>)-one
 28 30 0 0 0
SMALL
GASTEIGER

@<TRIPOS>ATOM
      1 CL          2.8482   10.5322    6.2536 Cl      1  LIG1       -0.0816
      2 CL          0.0576   11.5574    1.7865 Cl      1  LIG1       -0.0835
      3 O           4.8598    4.4169    3.8554 O.2     1  LIG1       -0.2449
      4 O           4.6344    6.6165    3.5146 O.3     1  LIG1       -0.4350
      5 H           4.3653    8.6696    5.3730 H       1  LIG1        0.1499
      6 N           4.4901    8.7809    4.5342 N.pl3   1  LIG1       -0.3045
      7 C           5.2639    5.5442    4.0390 C.2     1  LIG1        0.3415
      8 C           6.4304    6.0041    4.7950 C.ar    1  LIG1        0.0673
      9 C           7.3962    5.2654    5.4466 C.ar    1  LIG1       -0.0473
     10 H           7.3554    4.3360    5.4795 H       1  LIG1        0.0626
     11 C           8.4246    5.9601    6.0482 C.ar    1  LIG1       -0.0610
     12 H           9.0948    5.4942    6.4933 H       1  LIG1        0.0618
     13 C           8.4692    7.3403    5.9953 C.ar    1  LIG1       -0.0613
     14 H           9.1735    7.7842    6.4097 H       1  LIG1        0.0618
     15 C           7.4990    8.0778    5.3458 C.ar    1  LIG1       -0.0527
     16 H           7.5331    9.0070    5.3223 H       1  LIG1        0.0622
     17 C           6.4740    7.3788    4.7328 C.ar    1  LIG1        0.0252
     18 C           5.3387    7.8699    3.8940 C.3     1  LIG1        0.1956
     19 H           5.6998    8.2891    3.0852 H       1  LIG1        0.1006
     20 C           3.4611    9.4313    3.8633 C.ar    1  LIG1        0.0486
     21 C           2.6129   10.2929    4.5535 C.ar    1  LIG1        0.0632
     22 C           1.5779   10.9532    3.9297 C.ar    1  LIG1       -0.0232
     23 H           1.0203   11.5196    4.4134 H       1  LIG1        0.0647
     24 C           1.3807   10.7627    2.5829 C.ar    1  LIG1        0.0425
     25 C           2.2028    9.9467    1.8677 C.ar    1  LIG1       -0.0416
     26 H           2.0681    9.8349    0.9546 H       1  LIG1        0.0633
     27 C           3.2357    9.2865    2.4972 C.ar    1  LIG1       -0.0380
     28 H           3.7926    8.7318    1.9999 H       1  LIG1        0.0637
@<TRIPOS>BOND
     1    26    25    1
     2     2    24    1
     3    25    27   ar
     4    25    24   ar
     5    28    27    1
     6    27    20   ar
     7    24    22   ar
     8    19    18    1
     9     4    18    1
    10     4     7    1
    11     3     7    2
    12    20     6    1
    13    20    21   ar
    14    18     6    1
    15    18    17    1
    16    22    23    1
    17    22    21   ar
    18     7     8    1
    19     6     5    1
    20    21     1    1
    21    17     8   ar
    22    17    15   ar
    23     8     9   ar
    24    16    15    1
    25    15    13   ar
    26     9    10    1
    27     9    11   ar
    28    13    11   ar
    29    13    14    1
    30    11    12    1
