@<TRIPOS>MOLECULE
4-(Dimethylamino)benzaldehyde
 44 44 0 0 0
SMALL
GASTEIGER

@<TRIPOS>ATOM
      1 O          12.6815    4.4202    3.8392 O.2     1  LIG1       -0.2957
      2 O          14.1667    2.0345    0.9705 O.2     2  LIG2       -0.2957
      3 C           5.4054    5.8998    4.3736 C.3     1  LIG1        0.0004
      4 H           4.4982    5.7630    4.0896 H       1  LIG1        0.0428
      5 H           5.6427    6.8221    4.2531 H       1  LIG1        0.0428
      6 H           5.4897    5.6669    5.3004 H       1  LIG1        0.0428
      7 C           5.7036    4.2865    2.5063 C.3     1  LIG1        0.0004
      8 H           4.7499    4.3987    2.5105 H       1  LIG1        0.0428
      9 H           5.9172    3.3588    2.6305 H       1  LIG1        0.0428
     10 H           6.0561    4.5870    1.6661 H       1  LIG1        0.0428
     11 C           6.9479    0.4227    1.7099 C.3     2  LIG2        0.0004
     12 H           6.0328    0.5180    1.4363 H       2  LIG2        0.0428
     13 H           7.0418    0.7071    2.6222 H       2  LIG2        0.0428
     14 H           7.2106   -0.4973    1.6329 H       2  LIG2        0.0428
     15 C           7.1707    1.8754   -0.2856 C.3     2  LIG2        0.0004
     16 H           6.2205    1.7424   -0.2484 H       2  LIG2        0.0428
     17 H           7.5164    1.4895   -1.0928 H       2  LIG2        0.0428
     18 H           7.3636    2.8162   -0.2732 H       2  LIG2        0.0428
     19 C           7.6393    5.0747    3.7914 C.ar    1  LIG1        0.0292
     20 C          10.4285    5.0804    4.2037 C.ar    1  LIG1        0.0143
     21 N           6.2889    5.0667    3.5844 N.pl3   1  LIG1       -0.3360
     22 C           8.4922    4.2542    3.0308 C.ar    1  LIG1       -0.0400
     23 H           8.1319    3.7023    2.3739 H       1  LIG1        0.0636
     24 C           9.8548    4.2565    3.2433 C.ar    1  LIG1       -0.0498
     25 H          10.3980    3.6970    2.7361 H       1  LIG1        0.0625
     26 C           8.2313    5.8952    4.7695 C.ar    1  LIG1       -0.0400
     27 H           7.6960    6.4447    5.2962 H       1  LIG1        0.0636
     28 C           9.5942    5.8921    4.9551 C.ar    1  LIG1       -0.0498
     29 H           9.9649    6.4493    5.6005 H       1  LIG1        0.0625
     30 C          11.8704    5.0974    4.4162 C.2     1  LIG1        0.1502
     31 H          12.1941    5.6869    5.0582 H       1  LIG1        0.1081
     32 C           9.1468    1.2751    1.0412 C.ar    2  LIG2        0.0292
     33 N           7.7932    1.2390    0.8595 N.pl3   2  LIG2       -0.3360
     34 C           9.9828    1.9676    0.1594 C.ar    2  LIG2       -0.0400
     35 H           9.6146    2.3934   -0.5816 H       2  LIG2        0.0636
     36 C          11.9312    1.4281    1.4647 C.ar    2  LIG2        0.0143
     37 C           9.7496    0.6425    2.1462 C.ar    2  LIG2       -0.0400
     38 H           9.2266    0.1614    2.7464 H       2  LIG2        0.0636
     39 C          11.1073    0.7325    2.3406 C.ar    2  LIG2       -0.0498
     40 H          11.4858    0.3151    3.0796 H       2  LIG2        0.0625
     41 C          11.3397    2.0291    0.3674 C.ar    2  LIG2       -0.0498
     42 H          11.8731    2.4857   -0.2421 H       2  LIG2        0.0625
     43 C          13.3646    1.4903    1.6983 C.2     2  LIG2        0.1502
     44 H          13.6923    1.0807    2.4670 H       2  LIG2        0.1081
@<TRIPOS>BOND
     1    17    15    1
     2    35    34    1
     3    15    18    1
     4    15    16    1
     5    15    33    1
     6    42    41    1
     7    34    41   ar
     8    34    32   ar
     9    41    36   ar
    10    33    32    1
    11    33    11    1
    12     2    43    2
    13    32    37   ar
    14    12    11    1
    15    36    43    1
    16    36    39   ar
    17    14    11    1
    18    10     7    1
    19    43    44    1
    20    11    13    1
    21    37    39   ar
    22    37    38    1
    23    39    40    1
    24    23    22    1
    25     7     8    1
    26     7     9    1
    27     7    21    1
    28    25    24    1
    29    22    24   ar
    30    22    19   ar
    31    24    20   ar
    32    21    19    1
    33    21     3    1
    34    19    26   ar
    35     1    30    2
    36     4     3    1
    37    20    30    1
    38    20    28   ar
    39     5     3    1
    40     3     6    1
    41    30    31    1
    42    26    28   ar
    43    26    27    1
    44    28    29    1
