@<TRIPOS>MOLECULE
3-<i>tert</i>-Butyl-5,6,8-trinitronaphtho[1,8a,8-cd][1,2]dithiole
 36 38 0 0 0
SMALL
GASTEIGER

@<TRIPOS>ATOM
      1 S           2.7455    5.5710    5.8157 S.3     1  LIG1       -0.0510
      2 S           2.5319    3.5340    6.0594 S.3     1  LIG1       -0.0490
      3 O          -2.7978    7.1803    2.5915 O.2     1  LIG1       -0.1261
      4 O          -3.5267    5.5571    3.8197 O.2     1  LIG1       -0.1261
      5 O          -2.4969    3.8997    1.9209 O.2     1  LIG1       -0.1261
      6 O          -3.4639    2.5361    3.3077 O.2     1  LIG1       -0.1261
      7 O           0.0378    0.0542    5.6463 O.2     1  LIG1       -0.1261
      8 O           1.8939    1.0757    6.1701 O.2     1  LIG1       -0.1261
      9 N          -2.6189    6.2492    3.3729 N.pl3   1  LIG1        0.0571
     10 N          -2.5573    3.2912    2.9842 N.pl3   1  LIG1        0.0572
     11 N           0.7676    1.0460    5.6668 N.pl3   1  LIG1        0.0576
     12 C           1.2194    5.8466    5.0432 C.ar    1  LIG1        0.0317
     13 C           0.4568    4.6703    4.8076 C.ar    1  LIG1        0.0174
     14 C           1.0089    3.4495    5.2733 C.ar    1  LIG1        0.0581
     15 C           0.2752    2.2811    5.1115 C.ar    1  LIG1        0.1431
     16 C          -0.9219    2.2811    4.4016 C.ar    1  LIG1        0.0006
     17 H          -1.3792    1.4818    4.2650 H       1  LIG1        0.0664
     18 C          -1.4265    3.4379    3.9092 C.ar    1  LIG1        0.1383
     19 C          -0.8073    4.7085    4.1566 C.ar    1  LIG1        0.0448
     20 C          -1.2604    5.9950    3.8370 C.ar    1  LIG1        0.1364
     21 C          -0.5098    7.1292    4.0859 C.ar    1  LIG1       -0.0260
     22 H          -0.8668    7.9509    3.8339 H       1  LIG1        0.0644
     23 C           0.7382    7.1236    4.6836 C.ar    1  LIG1       -0.0250
     24 C           1.4877    8.4328    4.9937 C.3     1  LIG1       -0.0115
     25 C           2.8466    8.4541    4.2823 C.3     1  LIG1       -0.0560
     26 H           3.3163    9.2604    4.5124 H       1  LIG1        0.0238
     27 H           2.7117    8.4220    3.3328 H       1  LIG1        0.0238
     28 H           3.3639    7.6935    4.5571 H       1  LIG1        0.0238
     29 C           1.6998    8.5720    6.5086 C.3     1  LIG1       -0.0560
     30 H           2.2325    7.8388    6.8251 H       1  LIG1        0.0238
     31 H           0.8484    8.5652    6.9523 H       1  LIG1        0.0238
     32 H           2.1513    9.3995    6.6931 H       1  LIG1        0.0238
     33 C           0.6841    9.6589    4.5296 C.3     1  LIG1       -0.0560
     34 H           1.1708   10.4600    4.7417 H       1  LIG1        0.0238
     35 H          -0.1663    9.6734    4.9773 H       1  LIG1        0.0238
     36 H           0.5453    9.6112    3.5810 H       1  LIG1        0.0238
@<TRIPOS>BOND
     1     5    10    2
     2     3     9    2
     3    10     6    2
     4    10    18    1
     5    27    25    1
     6     9     4    2
     7     9    20    1
     8    36    33    1
     9    22    21    1
    10    20    21   ar
    11    20    19   ar
    12    18    19   ar
    13    18    16   ar
    14    21    23   ar
    15    19    13   ar
    16    17    16    1
    17    25    26    1
    18    25    28    1
    19    25    24    1
    20    16    15   ar
    21    33    34    1
    22    33    35    1
    23    33    24    1
    24    23    24    1
    25    23    12   ar
    26    13    12   ar
    27    13    14   ar
    28    24    29    1
    29    12     1    1
    30    15    14   ar
    31    15    11    1
    32    14     2    1
    33     7    11    2
    34    11     8    2
    35     1     2    2
    36    29    32    1
    37    29    30    1
    38    29    31    1
