@<TRIPOS>MOLECULE
2,4-Bis(2-chlorophenyl)-3-azabicyclo[3.3.1]nonan-9-one
 43 46 0 0 0
SMALL
GASTEIGER

@<TRIPOS>ATOM
      1 C           1.7436   -0.1929    1.7968 C.3     1  LIG1        0.0443
      2 H           2.3326    0.0583    1.0540 H       1  LIG1        0.0517
      3 C           2.6280   -0.6519    2.9925 C.3     1  LIG1        0.0373
      4 H           3.1937   -1.3949    2.6962 H       1  LIG1        0.0396
      5 C           1.8285   -1.1025    4.2461 C.3     1  LIG1       -0.0417
      6 H           1.1755   -1.7650    3.9735 H       1  LIG1        0.0273
      7 H           2.4408   -1.5334    4.8633 H       1  LIG1        0.0273
      8 C           1.0976    0.0210    4.9931 C.3     1  LIG1       -0.0517
      9 H           0.8625   -0.2914    5.8808 H       1  LIG1        0.0266
     10 H           0.2752    0.2303    4.5241 H       1  LIG1        0.0266
     11 C           1.9538    1.3138    5.1198 C.3     1  LIG1       -0.0417
     12 H           1.3753    2.0441    5.3871 H       1  LIG1        0.0273
     13 H           2.6091    1.1855    5.8228 H       1  LIG1        0.0273
     14 C           2.6958    1.7167    3.8136 C.3     1  LIG1        0.0373
     15 H           3.3068    2.4567    4.0121 H       1  LIG1        0.0396
     16 C           1.7838    2.1240    2.6318 C.3     1  LIG1        0.0443
     17 H           2.3586    2.3898    1.8848 H       1  LIG1        0.0517
     18 C           3.5134    0.5058    3.3746 C.2     1  LIG1        0.1431
     19 C           0.8230   -1.3118    1.3245 C.ar    1  LIG1       -0.0115
     20 C          -0.5180   -1.3825    1.7495 C.ar    1  LIG1       -0.0557
     21 H          -0.8544   -0.7118    2.2991 H       1  LIG1        0.0621
     22 C          -1.3530   -2.4308    1.3696 C.ar    1  LIG1       -0.0614
     23 H          -2.2387   -2.4449    1.6519 H       1  LIG1        0.0618
     24 C          -0.8604   -3.4564    0.5667 C.ar    1  LIG1       -0.0604
     25 H          -1.4126   -4.1680    0.3349 H       1  LIG1        0.0618
     26 C           0.4273   -3.4212    0.1202 C.ar    1  LIG1       -0.0431
     27 H           0.7453   -4.0899   -0.4433 H       1  LIG1        0.0632
     28 C           1.2661   -2.3747    0.5131 C.ar    1  LIG1        0.0457
     29 C           0.8848    3.3131    2.9817 C.ar    1  LIG1       -0.0115
     30 C           1.3444    4.6349    2.9034 C.ar    1  LIG1        0.0457
     31 C           0.5471    5.7156    3.1781 C.ar    1  LIG1       -0.0431
     32 H           0.8836    6.5795    3.1052 H       1  LIG1        0.0632
     33 C          -0.7791    5.5058    3.5721 C.ar    1  LIG1       -0.0604
     34 H          -1.3300    6.2281    3.7695 H       1  LIG1        0.0618
     35 C          -1.2610    4.2193    3.6633 C.ar    1  LIG1       -0.0614
     36 H          -2.1419    4.0756    3.9241 H       1  LIG1        0.0618
     37 C          -0.4456    3.1349    3.3713 C.ar    1  LIG1       -0.0557
     38 H          -0.7911    2.2737    3.4368 H       1  LIG1        0.0621
     39 CL          2.9202   -2.3897   -0.0859 Cl      1  LIG1       -0.0832
     40 CL          2.9959    4.9845    2.3871 Cl      1  LIG1       -0.0832
     41 N           0.9570    0.9905    2.1875 N.3     1  LIG1       -0.3012
     42 O           4.7160    0.4740    3.3606 O.2     1  LIG1       -0.2967
     43 H           0.4387    1.1941    1.5993 H       1  LIG1        0.1231
@<TRIPOS>BOND
     1    27    26    1
     2    39    28    1
     3    26    28   ar
     4    26    24   ar
     5    25    24    1
     6    28    19   ar
     7    24    22   ar
     8     2     1    1
     9    19    20   ar
    10    19     1    1
    11    22    23    1
    12    22    20   ar
    13    43    41    1
    14    20    21    1
    15     1    41    1
    16     1     3    1
    17    17    16    1
    18    41    16    1
    19    40    30    1
    20    16    29    1
    21    16    14    1
    22     4     3    1
    23    30    29   ar
    24    30    31   ar
    25    29    37   ar
    26     3    18    1
    27     3     5    1
    28    32    31    1
    29    31    33   ar
    30    42    18    2
    31    37    38    1
    32    37    35   ar
    33    18    14    1
    34    33    35   ar
    35    33    34    1
    36    35    36    1
    37    14    15    1
    38    14    11    1
    39     6     5    1
    40     5     7    1
    41     5     8    1
    42    10     8    1
    43     8    11    1
    44     8     9    1
    45    11    12    1
    46    11    13    1
