@<TRIPOS>MOLECULE
2-(1-adamantyl)-4-bromomethoxybenzene
 40 43 0 0 0
SMALL
GASTEIGER

@<TRIPOS>ATOM
      1 BR          3.6657    6.8856    0.3910 Br      1  LIG1       -0.0503
      2 O           2.8891   12.4011    2.6991 O.3     1  LIG1       -0.4948
      3 C           1.2357   10.3118    3.7562 C.3     1  LIG1        0.0000
      4 C           1.9236   10.7965    5.0474 C.3     1  LIG1       -0.0404
      5 H           2.5806   10.1190    5.3458 H       1  LIG1        0.0276
      6 H           2.4130   11.6377    4.8636 H       1  LIG1        0.0276
      7 C           3.0796   11.1570    2.1606 C.ar    1  LIG1        0.1238
      8 C          -1.5568   10.2510    4.7913 C.3     1  LIG1       -0.0473
      9 H          -2.0432    9.9262    3.9928 H       1  LIG1        0.0271
     10 H          -2.2137   10.3950    5.5175 H       1  LIG1        0.0271
     11 C          -0.1144   12.0749    5.7059 C.3     1  LIG1       -0.0473
     12 H           0.3484   12.9228    5.4934 H       1  LIG1        0.0271
     13 H          -0.7632   12.2492    6.4336 H       1  LIG1        0.0271
     14 C           0.1513   11.3406    3.3268 C.3     1  LIG1       -0.0404
     15 H           0.5831   12.1990    3.0917 H       1  LIG1        0.0276
     16 H          -0.3255   11.0051    2.5267 H       1  LIG1        0.0276
     17 C           2.2838   10.1110    2.6563 C.ar    1  LIG1        0.0015
     18 C           0.2023    9.7267    6.4803 C.3     1  LIG1       -0.0473
     19 H          -0.4503    9.8641    7.2111 H       1  LIG1        0.0271
     20 H           0.8673    9.0572    6.7786 H       1  LIG1        0.0271
     21 C           0.4931    9.0043    4.1073 C.3     1  LIG1       -0.0404
     22 H           0.0273    8.6662    3.3012 H       1  LIG1        0.0276
     23 H           1.1508    8.3202    4.3890 H       1  LIG1        0.0276
     24 C           2.4949    8.8445    2.1003 C.ar    1  LIG1       -0.0406
     25 H           1.9731    8.1102    2.4017 H       1  LIG1        0.0633
     26 C           4.2303    9.6660    0.6524 C.ar    1  LIG1       -0.0443
     27 H           4.8961    9.5088   -0.0075 H       1  LIG1        0.0630
     28 C           3.6346   13.4840    2.2148 C.3     1  LIG1        0.0788
     29 H           3.3962   14.2936    2.7121 H       1  LIG1        0.0660
     30 H           3.4398   13.6148    1.2641 H       1  LIG1        0.0660
     31 H           4.5906   13.2991    2.3309 H       1  LIG1        0.0660
     32 C           4.0296   10.9285    1.1602 C.ar    1  LIG1       -0.0186
     33 H           4.5433   11.6549    0.8272 H       1  LIG1        0.0654
     34 C          -0.5226    9.2196    5.2237 C.3     1  LIG1       -0.0397
     35 H          -0.9803    8.3546    5.4301 H       1  LIG1        0.0301
     36 C           0.8976   11.0355    6.1579 C.3     1  LIG1       -0.0397
     37 H           1.3685   11.3670    6.9745 H       1  LIG1        0.0301
     38 C          -0.8489   11.5611    4.4689 C.3     1  LIG1       -0.0397
     39 H          -1.5265   12.2386    4.1841 H       1  LIG1        0.0301
     40 C           3.4479    8.6385    1.1195 C.ar    1  LIG1        0.0184
@<TRIPOS>BOND
     1    27    26    1
     2     1    40    1
     3    26    40   ar
     4    26    32   ar
     5    33    32    1
     6    40    24   ar
     7    32     7   ar
     8    30    28    1
     9    24    25    1
    10    24    17   ar
    11     7    17   ar
    12     7     2    1
    13    28    31    1
    14    28     2    1
    15    28    29    1
    16    16    14    1
    17    17     3    1
    18    15    14    1
    19    22    21    1
    20    14     3    1
    21    14    38    1
    22     3    21    1
    23     3     4    1
    24     9     8    1
    25    21    23    1
    26    21    34    1
    27    39    38    1
    28    38     8    1
    29    38    11    1
    30     8    34    1
    31     8    10    1
    32     6     4    1
    33     4     5    1
    34     4    36    1
    35    34    35    1
    36    34    18    1
    37    12    11    1
    38    11    36    1
    39    11    13    1
    40    36    18    1
    41    36    37    1
    42    18    20    1
    43    18    19    1
