@<TRIPOS>MOLECULE
4,4'-[2,2-Dimethylpropane-1,3-diylbis(nitrilomethylidyne)]dibenzonitrile
 45 46 0 0 0
SMALL
GASTEIGER

@<TRIPOS>ATOM
      1 N           3.2966    4.8751   10.2324 N.2     1  LIG1       -0.2904
      2 N           3.4504    2.7047    6.4186 N.2     1  LIG1       -0.2904
      3 N          -2.0731    8.0349   14.6677 N.1     1  LIG1       -0.1909
      4 N           1.5093    0.4231   -0.5309 N.1     1  LIG1       -0.1909
      5 C           0.9388    5.5398   11.8365 C.ar    1  LIG1       -0.0519
      6 H           0.9361    4.6877   11.4606 H       1  LIG1        0.0624
      7 C          -0.1212    5.9472   12.6221 C.ar    1  LIG1       -0.0437
      8 H          -0.8329    5.3691   12.7818 H       1  LIG1        0.0631
      9 C          -0.1181    7.2306   13.1756 C.ar    1  LIG1        0.0518
     10 C           0.9418    8.0969   12.9371 C.ar    1  LIG1       -0.0437
     11 H           0.9360    8.9530   13.3000 H       1  LIG1        0.0631
     12 C           2.0016    7.6806   12.1588 C.ar    1  LIG1       -0.0519
     13 H           2.7142    8.2581   12.0015 H       1  LIG1        0.0624
     14 C           2.0125    6.3997   11.6053 C.ar    1  LIG1       -0.0073
     15 C           3.1841    6.0041   10.8001 C.2     1  LIG1        0.0293
     16 H           3.8782    6.6160   10.7038 H       1  LIG1        0.0831
     17 C           4.5394    4.6605    9.4997 C.3     1  LIG1        0.0465
     18 H           5.0081    3.9076    9.8925 H       1  LIG1        0.0514
     19 H           5.1023    5.4440    9.6020 H       1  LIG1        0.0514
     20 C           4.3348    4.3900    8.0015 C.3     1  LIG1        0.0040
     21 C           3.5587    3.0719    7.8249 C.3     1  LIG1        0.0465
     22 H           4.0136    2.3643    8.3077 H       1  LIG1        0.0514
     23 H           2.6701    3.1683    8.2014 H       1  LIG1        0.0514
     24 C           2.3228    2.3251    5.9928 C.2     1  LIG1        0.0293
     25 H           1.5999    2.2996    6.5780 H       1  LIG1        0.0831
     26 C           2.1290    1.9228    4.5832 C.ar    1  LIG1       -0.0073
     27 C           3.1819    2.0151    3.6721 C.ar    1  LIG1       -0.0519
     28 H           4.0072    2.3405    3.9508 H       1  LIG1        0.0624
     29 C           3.0041    1.6271    2.3612 C.ar    1  LIG1       -0.0437
     30 H           3.7054    1.6932    1.7548 H       1  LIG1        0.0631
     31 C           1.7683    1.1341    1.9503 C.ar    1  LIG1        0.0518
     32 C           0.7019    1.0452    2.8415 C.ar    1  LIG1       -0.0437
     33 H          -0.1235    0.7222    2.5602 H       1  LIG1        0.0631
     34 C           0.8929    1.4469    4.1571 C.ar    1  LIG1       -0.0519
     35 H           0.1860    1.3968    4.7596 H       1  LIG1        0.0624
     36 C          -1.2171    7.6694   14.0029 C.1     1  LIG1        0.0992
     37 C           1.6071    0.7205    0.5743 C.1     1  LIG1        0.0992
     38 C           5.7238    4.2745    7.3738 C.3     1  LIG1       -0.0564
     39 H           6.1881    5.1102    7.4680 H       1  LIG1        0.0236
     40 H           5.6367    4.0609    6.4424 H       1  LIG1        0.0236
     41 H           6.2188    3.5805    7.8171 H       1  LIG1        0.0236
     42 C           3.5608    5.5415    7.3519 C.3     1  LIG1       -0.0564
     43 H           4.0150    6.3707    7.5232 H       1  LIG1        0.0236
     44 H           2.6750    5.5803    7.7208 H       1  LIG1        0.0236
     45 H           3.5067    5.3964    6.4047 H       1  LIG1        0.0236
@<TRIPOS>BOND
     1     4    37    3
     2    37    31    1
     3    30    29    1
     4    31    29   ar
     5    31    32   ar
     6    29    27   ar
     7    33    32    1
     8    32    34   ar
     9    27    28    1
    10    27    26   ar
    11    34    26   ar
    12    34    35    1
    13    26    24    1
    14    24     2    2
    15    24    25    1
    16    45    42    1
    17     2    21    1
    18    40    38    1
    19    42    43    1
    20    42    44    1
    21    42    20    1
    22    38    39    1
    23    38    41    1
    24    38    20    1
    25    21    20    1
    26    21    23    1
    27    21    22    1
    28    20    17    1
    29    17    19    1
    30    17    18    1
    31    17     1    1
    32     1    15    2
    33    16    15    1
    34    15    14    1
    35     6     5    1
    36    14     5   ar
    37    14    12   ar
    38     5     7   ar
    39    13    12    1
    40    12    10   ar
    41     7     8    1
    42     7     9   ar
    43    10     9   ar
    44    10    11    1
    45     9    36    1
    46    36     3    3
