@<TRIPOS>MOLECULE
(+-)-5-Ethyl-2-(4-isopropyl-4-methyl-5-oxo-4,5-dihydro-1H-imidazol-2- yl)nicotinic acid
 40 41 0 0 0
SMALL
GASTEIGER

@<TRIPOS>ATOM
      1 N           6.7131   14.9282    2.3358 N.ar    1  LIG1       -0.2465
      2 N           3.8616   13.9086    0.4928 N.2     1  LIG1       -0.0623
      3 N           4.6577   15.9206    1.0350 N.am    1  LIG1       -0.1653
      4 H           5.1997   16.4911    1.3807 H       1  LIG1        0.3015
      5 O           4.4613   11.4898    0.6708 O.3     1  LIG1       -0.4771
      6 H           4.2717   12.2844    0.5934 H       1  LIG1        0.2954
      7 O           5.8638   10.2663    1.8056 O.2     1  LIG1       -0.2451
      8 O           3.0698   17.3306    0.1227 O.2     1  LIG1       -0.2424
      9 C           7.7862   14.5781    3.0375 C.ar    1  LIG1        0.0317
     10 H           8.2980   15.2566    3.4151 H       1  LIG1        0.0832
     11 C           8.1941   13.2686    3.2430 C.ar    1  LIG1       -0.0287
     12 C           7.3931   12.2892    2.6961 C.ar    1  LIG1       -0.0408
     13 H           7.6259   11.3970    2.8203 H       1  LIG1        0.0630
     14 C           6.2445   12.5888    1.9640 C.ar    1  LIG1        0.0923
     15 C           5.9484   13.9608    1.8056 C.ar    1  LIG1        0.1680
     16 C           4.7973   14.5498    1.0909 C.2     1  LIG1        0.3402
     17 C           9.4363   12.9595    4.0311 C.3     1  LIG1       -0.0291
     18 H           9.5743   11.9998    4.0376 H       1  LIG1        0.0311
     19 H           9.3062   13.2456    4.9484 H       1  LIG1        0.0311
     20 C          10.6776   13.6306    3.4783 C.3     1  LIG1       -0.0612
     21 H          10.7975   13.3758    2.5603 H       1  LIG1        0.0233
     22 H          11.4437   13.3566    3.9889 H       1  LIG1        0.0233
     23 H          10.5786   14.5831    3.5357 H       1  LIG1        0.0233
     24 C           5.4831   11.3642    1.4621 C.2     1  LIG1        0.3391
     25 C           3.5173   16.2285    0.3399 C.2     1  LIG1        0.3535
     26 C           2.9208   14.8796   -0.0901 C.3     1  LIG1        0.2489
     27 C           1.5027   14.7059    0.4910 C.3     1  LIG1        0.0118
     28 H           0.9395   15.4045    0.0966 H       1  LIG1        0.0346
     29 C           0.8788   13.3684    0.1307 C.3     1  LIG1       -0.0579
     30 H           1.3744   12.6605    0.5498 H       1  LIG1        0.0234
     31 H           0.8993   13.2521   -0.8215 H       1  LIG1        0.0234
     32 H          -0.0305   13.3469    0.4372 H       1  LIG1        0.0234
     33 C           1.4691   14.8989    1.9966 C.3     1  LIG1       -0.0579
     34 H           0.5641   14.8274    2.3075 H       1  LIG1        0.0234
     35 H           1.8156   15.7678    2.2153 H       1  LIG1        0.0234
     36 H           2.0062   14.2246    2.4179 H       1  LIG1        0.0234
     37 C           2.9608   14.7859   -1.6110 C.3     1  LIG1       -0.0058
     38 H           3.8608   14.9222   -1.9160 H       1  LIG1        0.0280
     39 H           2.3888   15.4591   -1.9879 H       1  LIG1        0.0280
     40 H           2.6585   13.9176   -1.8855 H       1  LIG1        0.0280
@<TRIPOS>BOND
     1    39    37    1
     2    38    37    1
     3    40    37    1
     4    37    26    1
     5    31    29    1
     6    26    25    1
     7    26    27    1
     8    26     2    1
     9    28    27    1
    10     8    25    2
    11    29    32    1
    12    29    27    1
    13    29    30    1
    14    25     3   am
    15    27    33    1
    16     2    16    2
    17     6     5    1
    18     5    24    1
    19     3    16    1
    20     3     4    1
    21    16    15    1
    22    24     7    2
    23    24    14    1
    24    15    14   ar
    25    15     1   ar
    26    14    12   ar
    27    33    35    1
    28    33    34    1
    29    33    36    1
    30     1     9   ar
    31    21    20    1
    32    12    13    1
    33    12    11   ar
    34     9    11   ar
    35     9    10    1
    36    11    17    1
    37    20    23    1
    38    20    22    1
    39    20    17    1
    40    17    18    1
    41    17    19    1
