@<TRIPOS>MOLECULE
1,2-Bis[bis(methylsulfanyl)methylene]hydrazine
 10 9 0 0 0
SMALL
GASTEIGER

@<TRIPOS>ATOM
      1 S           5.9249    3.5965    5.7653 S.3     1  LIG1       -0.0965
      2 S           2.9549    3.5965    6.2583 S.3     1  LIG1       -0.0965
      3 N           4.1028    3.5965    3.8402 N.2     1  LIG1       -0.1344
      4 C           4.2946    3.5965    5.1155 C.2     1  LIG1        0.1528
      5 C           3.7679    3.5965    7.8819 C.3     1  LIG1        0.0096
      6 H           3.1009    3.5965    8.5737 H       1  LIG1        0.0388
      7 H           4.3158    4.3805    7.9658 H       1  LIG1        0.0388
      8 C           6.9306    3.5965    4.2773 C.3     1  LIG1        0.0096
      9 H           7.8596    3.5965    4.5187 H       1  LIG1        0.0388
     10 H           6.7346    4.3805    3.7585 H       1  LIG1        0.0388
@<TRIPOS>BOND
     1    10     8    1
     2     3     4    2
     3     8     9    1
     4     8     1    1
     5     4     1    1
     6     4     2    1
     7     2     5    1
     8     5     7    1
     9     5     6    1
