@<TRIPOS>MOLECULE
<i>N</i>,<i>N</i>'-Dimethoxy-<i>N</i>,<i>N</i>'-dimethylsuccinamide
 15 14 0 0 0
SMALL
GASTEIGER

@<TRIPOS>ATOM
      1 O           0.5786    5.7830    2.4043 O.2     1  LIG1       -0.2735
      2 O           1.6481    8.5369    0.5757 O.3     1  LIG1       -0.2807
      3 N           1.3469    7.7389    1.6851 N.am    1  LIG1       -0.1843
      4 C           0.7481    6.5567    1.4715 C.2     1  LIG1        0.2384
      5 C           0.2979    6.2664    0.0640 C.3     1  LIG1        0.0344
      6 H           1.0560    6.3444   -0.5356 H       1  LIG1        0.0364
      7 H          -0.3622    6.9254   -0.2021 H       1  LIG1        0.0364
      8 C           0.8180    9.7065    0.5654 C.3     1  LIG1        0.0624
      9 H           1.0324   10.2442   -0.1999 H       1  LIG1        0.0547
     10 H           0.9707   10.2141    1.3660 H       1  LIG1        0.0547
     11 H          -0.1043    9.4435    0.5245 H       1  LIG1        0.0547
     12 C           2.0040    8.1088    2.9179 C.3     1  LIG1        0.0305
     13 H           1.7409    7.5031    3.6154 H       1  LIG1        0.0453
     14 H           1.7522    9.0030    3.1593 H       1  LIG1        0.0453
     15 H           2.9556    8.0651    2.7993 H       1  LIG1        0.0453
@<TRIPOS>BOND
     1     6     5    1
     2     7     5    1
     3     9     8    1
     4     5     4    1
     5    11     8    1
     6     8     2    1
     7     8    10    1
     8     2     3    1
     9     4     3   am
    10     4     1    2
    11     3    12    1
    12    15    12    1
    13    12    14    1
    14    12    13    1
