@<TRIPOS>MOLECULE
Methyl 4,6-dichloropyridine-3-carboxylate
 34 34 0 0 0
SMALL
GASTEIGER

@<TRIPOS>ATOM
      1 CL          1.8643    6.3933    7.2635 Cl      1  LIG1       -0.0826
      2 CL          5.3423    2.7417   12.9022 Cl      2  LIG2       -0.0826
      3 CL          3.1706    0.2358    8.7419 Cl      2  LIG2       -0.0620
      4 CL          0.8179    1.4946    5.5109 Cl      1  LIG1       -0.0620
      5 O          -0.3163    7.5361    3.5651 O.3     1  LIG1       -0.4644
      6 O           3.9638    6.3273   10.6538 O.3     2  LIG2       -0.4644
      7 C           4.2496    4.0308   10.7613 C.ar    2  LIG2        0.0953
      8 C           3.6039    3.9400    9.5300 C.ar    2  LIG2        0.0446
      9 H           3.3874    4.7378    9.1035 H       2  LIG2        0.0839
     10 O           5.2957    5.5751   12.2522 O.2     2  LIG2       -0.2449
     11 C           4.2350    1.6428   10.7545 C.ar    2  LIG2       -0.0057
     12 H           4.4428    0.8235   11.1429 H       2  LIG2        0.0662
     13 N           3.2721    2.8152    8.9155 N.ar    2  LIG2       -0.2426
     14 C           0.5543    5.8757    4.9195 C.ar    1  LIG1        0.0953
     15 C           0.0146    4.9325    4.0486 C.ar    1  LIG1        0.0446
     16 H          -0.4230    5.2463    3.2908 H       1  LIG1        0.0839
     17 C           1.2783    4.0168    6.2526 C.ar    1  LIG1       -0.0057
     18 H           1.7091    3.6620    6.9969 H       1  LIG1        0.0662
     19 O           1.0049    8.1905    5.1836 O.2     1  LIG1       -0.2449
     20 C           3.5926    1.7135    9.5389 C.ar    2  LIG2        0.1306
     21 C           4.5553    2.8212   11.3713 C.ar    2  LIG2        0.0593
     22 C           0.4599    7.3168    4.5993 C.2     1  LIG1        0.3418
     23 C           4.2694    7.6742   11.0635 C.3     2  LIG2        0.0820
     24 H           3.7681    8.2935   10.5273 H       2  LIG2        0.0661
     25 H           5.2085    7.8382   10.9482 H       2  LIG2        0.0661
     26 H           4.0354    7.7888   11.9880 H       2  LIG2        0.0661
     27 N           0.0782    3.6155    4.2232 N.ar    1  LIG1       -0.2426
     28 C           1.1855    5.3738    6.0556 C.ar    1  LIG1        0.0593
     29 C           4.5790    5.3577   11.3232 C.2     2  LIG2        0.3418
     30 C          -0.4626    8.9113    3.1442 C.3     1  LIG1        0.0820
     31 H          -1.0521    8.9538    2.3875 H       1  LIG1        0.0661
     32 H           0.3960    9.2650    2.9002 H       1  LIG1        0.0661
     33 H          -0.8289    9.4282    3.8651 H       1  LIG1        0.0661
     34 C           0.7081    3.2096    5.3023 C.ar    1  LIG1        0.1306
@<TRIPOS>BOND
     1    31    30    1
     2    32    30    1
     3    30     5    1
     4    30    33    1
     5    16    15    1
     6     5    22    1
     7    15    27   ar
     8    15    14   ar
     9    27    34   ar
    10    22    14    1
    11    22    19    2
    12    14    28   ar
    13    34     4    1
    14    34    17   ar
    15    28    17   ar
    16    28     1    1
    17    17    18    1
    18     3    20    1
    19    13     8   ar
    20    13    20   ar
    21     9     8    1
    22     8     7   ar
    23    20    11   ar
    24    24    23    1
    25     6    23    1
    26     6    29    1
    27    11    12    1
    28    11    21   ar
    29     7    29    1
    30     7    21   ar
    31    25    23    1
    32    23    26    1
    33    29    10    2
    34    21     2    1
