@<TRIPOS>MOLECULE
3-(3-Chloropropyl)-7,8-dimethoxy-2,3,4,5-tetrahydro-1<i>H</i>- 3-benzazepin-2-one
 40 41 0 0 0
SMALL
GASTEIGER

@<TRIPOS>ATOM
      1 C          -1.6474   -1.1424   12.2270 C.3     1  LIG1        0.0790
      2 H          -0.7978   -1.2286   12.6668 H       1  LIG1        0.0660
      3 H          -2.3117   -1.6361   12.7136 H       1  LIG1        0.0660
      4 H          -1.8977   -0.2165   12.1923 H       1  LIG1        0.0660
      5 C          -1.9062   -2.6762    7.0348 C.3     1  LIG1        0.0790
      6 H          -2.1905   -1.8590    6.6191 H       1  LIG1        0.0660
      7 H          -2.6003   -3.3349    6.9545 H       1  LIG1        0.0660
      8 H          -1.1100   -2.9961    6.6024 H       1  LIG1        0.0660
      9 C          -0.7005   -1.0175   10.0363 C.ar    1  LIG1        0.1618
     10 C          -0.7397   -1.4372    8.6942 C.ar    1  LIG1        0.1618
     11 C           0.0959   -0.8420    7.7760 C.ar    1  LIG1       -0.0124
     12 H           0.0796   -1.1388    6.8943 H       1  LIG1        0.0658
     13 C           0.9692    0.1964    8.1243 C.ar    1  LIG1       -0.0317
     14 C           0.9930    0.6299    9.4492 C.ar    1  LIG1       -0.0386
     15 C           0.1564    0.0007   10.3837 C.ar    1  LIG1       -0.0128
     16 H           0.1821    0.2822   11.2699 H       1  LIG1        0.0658
     17 C           1.8572    0.7536    7.0055 C.3     1  LIG1        0.0497
     18 H           1.7229    0.2257    6.2025 H       1  LIG1        0.0407
     19 H           1.5855    1.6636    6.8107 H       1  LIG1        0.0407
     20 C           3.3274    0.7434    7.3627 C.2     1  LIG1        0.2199
     21 N           3.7158    1.5956    8.3447 N.am    1  LIG1       -0.3009
     22 C           2.7515    2.4695    9.0130 C.3     1  LIG1        0.0187
     23 H           2.1853    2.8853    8.3447 H       1  LIG1        0.0468
     24 H           3.2310    3.1740    9.4753 H       1  LIG1        0.0468
     25 C           1.8799    1.7293   10.0071 C.3     1  LIG1       -0.0114
     26 H           1.3127    2.3784   10.4523 H       1  LIG1        0.0328
     27 H           2.4570    1.3387   10.6818 H       1  LIG1        0.0328
     28 C           5.0271    1.4449    8.9787 C.3     1  LIG1        0.0157
     29 H           5.4260    0.6136    8.6766 H       1  LIG1        0.0465
     30 H           4.9034    1.3786    9.9387 H       1  LIG1        0.0465
     31 C           5.9947    2.5853    8.6879 C.3     1  LIG1       -0.0237
     32 H           5.5681    3.4332    8.8894 H       1  LIG1        0.0292
     33 H           6.7779    2.5001    9.2537 H       1  LIG1        0.0292
     34 C           6.4090    2.5615    7.2541 C.3     1  LIG1        0.0240
     35 H           5.6245    2.6498    6.6893 H       1  LIG1        0.0430
     36 H           6.8296    1.7111    7.0536 H       1  LIG1        0.0430
     37 O          -1.5491   -1.6582   10.8997 O.3     1  LIG1       -0.4914
     38 O          -1.6349   -2.4383    8.4134 O.3     1  LIG1       -0.4914
     39 O           4.1193   -0.0111    6.8069 O.2     1  LIG1       -0.2752
     40 CL          7.5619    3.9030    6.8951 Cl      1  LIG1       -0.1254
@<TRIPOS>BOND
     1    18    17    1
     2     8     5    1
     3     6     5    1
     4    35    34    1
     5    39    20    2
     6    19    17    1
     7    12    11    1
     8    40    34    1
     9     7     5    1
    10    17    20    1
    11    17    13    1
    12     5    38    1
    13    36    34    1
    14    34    31    1
    15    20    21   am
    16    11    13   ar
    17    11    10   ar
    18    13    14   ar
    19    23    22    1
    20    21    28    1
    21    21    22    1
    22    38    10    1
    23    29    28    1
    24    31    32    1
    25    31    28    1
    26    31    33    1
    27    10     9   ar
    28    28    30    1
    29    22    24    1
    30    22    25    1
    31    14    25    1
    32    14    15   ar
    33    25    26    1
    34    25    27    1
    35     9    15   ar
    36     9    37    1
    37    15    16    1
    38    37     1    1
    39     4     1    1
    40     1     2    1
    41     1     3    1
