@<TRIPOS>MOLECULE
3-(3,5-Dichloroanilinocarbonyl)propionic acid
 25 25 0 0 0
SMALL
GASTEIGER

@<TRIPOS>ATOM
      1 CL         -0.6121    9.9914    4.1389 Cl      1  LIG1       -0.0834
      2 CL          2.9980    8.0317    7.5781 Cl      1  LIG1       -0.0834
      3 O           1.0272    0.4405    0.9871 O.3     1  LIG1       -0.4806
      4 H           1.4037   -0.2606    0.5175 H       1  LIG1        0.2951
      5 O           2.7274    1.6442    0.2386 O.2     1  LIG1       -0.2510
      6 O           0.0716    5.1893    2.4752 O.2     1  LIG1       -0.2755
      7 N           2.1547    5.8108    3.0714 N.am    1  LIG1       -0.2854
      8 H           2.9598    5.6086    2.9458 H       1  LIG1        0.1548
      9 C           1.6883    1.5470    0.8682 C.2     1  LIG1        0.3052
     10 C           1.0573    2.6946    1.5764 C.3     1  LIG1        0.0530
     11 H           0.2664    2.8443    1.1810 H       1  LIG1        0.0382
     12 H           0.7997    2.3803    2.4681 H       1  LIG1        0.0382
     13 C           1.8964    3.9339    1.5843 C.3     1  LIG1        0.0343
     14 H           2.7439    3.7567    1.8444 H       1  LIG1        0.0364
     15 H           1.9805    4.3033    0.6767 H       1  LIG1        0.0364
     16 C           1.2842    5.0294    2.4126 C.2     1  LIG1        0.2177
     17 C           1.8138    6.8498    3.9700 C.ar    1  LIG1        0.0361
     18 C           0.8403    7.7923    3.6411 C.ar    1  LIG1       -0.0220
     19 H           0.4196    7.7096    2.7600 H       1  LIG1        0.0651
     20 C           0.5681    8.7865    4.5553 C.ar    1  LIG1        0.0441
     21 C           1.1993    8.8829    5.7695 C.ar    1  LIG1       -0.0249
     22 H           0.9761    9.5552    6.3759 H       1  LIG1        0.0647
     23 C           2.1657    7.9340    6.0605 C.ar    1  LIG1        0.0441
     24 C           2.4819    6.9224    5.1750 C.ar    1  LIG1       -0.0220
     25 H           3.1222    6.2903    5.3621 H       1  LIG1        0.0651
@<TRIPOS>BOND
     1     5     9    2
     2     4     3    1
     3    15    13    1
     4     9     3    1
     5     9    10    1
     6    11    10    1
     7    10    13    1
     8    10    12    1
     9    13    14    1
    10    13    16    1
    11    16     6    2
    12    16     7   am
    13    19    18    1
    14     8     7    1
    15     7    17    1
    16    18    17   ar
    17    18    20   ar
    18    17    24   ar
    19     1    20    1
    20    20    21   ar
    21    24    25    1
    22    24    23   ar
    23    21    23   ar
    24    21    22    1
    25    23     2    1
