@<TRIPOS>MOLECULE
4-fluoro-2-hydroxybenzaldehyde
 18 18 0 0 0
SMALL
GASTEIGER

@<TRIPOS>ATOM
      1 F           0.4141    7.1878    8.5158 F       1  LIG1       -0.2054
      2 O           1.5236   10.3322    5.2436 O.3     1  LIG1       -0.5060
      3 O           2.4815   12.5716    6.0135 O.2     1  LIG1       -0.2922
      4 C           1.8560   10.9164    7.5634 C.ar    1  LIG1        0.0586
      5 C           1.4481   10.0192    6.5465 C.ar    1  LIG1        0.1300
      6 C           0.9535    8.7565    6.8740 C.ar    1  LIG1        0.0157
      7 C           0.8891    8.4211    8.1972 C.ar    1  LIG1        0.1269
      8 C           1.2781    9.2508    9.2335 C.ar    1  LIG1       -0.0256
      9 C           1.7575   10.4987    8.8948 C.ar    1  LIG1       -0.0450
     10 C           2.3871   12.2360    7.2002 C.2     1  LIG1        0.1636
     11 C           2.8164   13.1989    8.2687 C.3     1  LIG1       -0.0013
     12 H           1.7984   11.1430    5.2490 H       1  LIG1        0.2922
     13 H           0.6371    8.1650    6.1487 H       1  LIG1        0.0683
     14 H           1.2308    8.9426   10.1508 H       1  LIG1        0.0646
     15 H           2.0230   11.1103    9.6190 H       1  LIG1        0.0627
     16 H           1.9990   13.5186    8.7323 H       1  LIG1        0.0309
     17 H           3.3812   12.7894    8.9702 H       1  LIG1        0.0309
     18 H           3.2999   13.9430    7.8624 H       1  LIG1        0.0309
@<TRIPOS>BOND
     1     2    12    1
     2     2     5    1
     3     3    10    2
     4    13     6    1
     5     5     6   ar
     6     5     4   ar
     7     6     7   ar
     8    10     4    1
     9    10    11    1
    10     4     9   ar
    11    18    11    1
    12     7     1    1
    13     7     8   ar
    14    11    16    1
    15    11    17    1
    16     9     8   ar
    17     9    15    1
    18     8    14    1
