@<TRIPOS>MOLECULE
3-Aminopyridinium 4-hydroxy-3-iodonaphthalene-1-sulfonate dihydrate
 42 41 0 0 0
SMALL
GASTEIGER

@<TRIPOS>ATOM
      1 N          10.9395    1.3739   -0.2932 N.pl3   1  LIG1       -0.3254
      2 H          10.4514    1.6291   -0.9828 H       1  LIG1        0.1511
      3 N          10.3322    0.4034    3.1205 N.pl3   1  LIG1       -0.3598
      4 H           9.4666    0.2377    3.0228 H       1  LIG1        0.1421
      5 H          10.7969    0.0559    3.7929 H       1  LIG1        0.1421
      6 C          12.2598    1.3620   -0.3952 C.2     1  LIG1       -0.0100
      7 H          12.6761    1.5920   -1.1956 H       1  LIG1        0.0778
      8 C          13.0025    1.0026    0.7025 C.2     1  LIG1       -0.0607
      9 H          13.9305    0.9823    0.6485 H       1  LIG1        0.0591
     10 C          12.3802    0.6747    1.8779 C.3     1  LIG1        0.0289
     11 H          12.8899    0.4321    2.6175 H       1  LIG1        0.0414
     12 C          10.9817    0.7034    1.9724 C.2     1  LIG1        0.0231
     13 C          10.2851    1.0599    0.8325 C.2     1  LIG1        0.0106
     14 H           9.3554    1.0816    0.8477 H       1  LIG1        0.0797
     15 S           6.5820    1.4750    3.2120 S.3     2  LIG2        0.1403
     16 I           0.9144    1.4160    3.8870 I       2  LIG2       -0.0400
     17 O           7.3171    0.4608    2.4693 O.2     2  LIG2       -0.1397
     18 O           7.2132    2.7841    3.0831 O.2     2  LIG2       -0.1397
     19 O           6.3398    1.1047    4.5780 O.3     2  LIG2       -0.0426
     20 O           1.1896    2.0961    0.8216 O.3     2  LIG2       -0.5051
     21 H           1.2069    2.2024   -0.0135 H       2  LIG2        0.2922
     22 C           4.9927    1.6270    2.4293 C.ar    2  LIG2        0.1285
     23 C           3.8767    1.4627    3.1990 C.ar    2  LIG2       -0.0170
     24 H           3.9686    1.2473    4.0986 H       2  LIG2        0.0649
     25 C           2.5940    1.6137    2.6533 C.ar    2  LIG2        0.0572
     26 C           2.4274    1.9367    1.3295 C.ar    2  LIG2        0.1377
     27 C           3.5767    2.1276    0.5080 C.ar    2  LIG2        0.0265
     28 C           3.3382    2.4702   -0.7871 C.ar    2  LIG2       -0.0504
     29 H           2.4707    2.5667   -1.1061 H       2  LIG2        0.0625
     30 C           4.3657    2.6589   -1.5692 C.ar    2  LIG2       -0.0611
     31 H           4.2093    2.8946   -2.4554 H       2  LIG2        0.0618
     32 C           5.6948    2.5247   -1.1389 C.ar    2  LIG2       -0.0611
     33 H           6.3965    2.6701   -1.7343 H       2  LIG2        0.0618
     34 C           5.9555    2.1814    0.1515 C.ar    2  LIG2       -0.0520
     35 H           6.8330    2.0870    0.4424 H       2  LIG2        0.0624
     36 C           4.8761    1.9682    1.0512 C.ar    2  LIG2        0.0130
     37 O           0.3046    2.4974   -1.6491 O.3     3  HOH3       -0.4105
     38 H           0.0408    3.3071   -1.6043 H       0  HOH0        0.2052
     39 H           0.8908    2.5100   -2.2578 H       0  HOH0        0.2052
     40 O           9.2218    1.9129   -2.3397 O.3     4  HOH4       -0.4105
     41 H           8.7007    1.2515   -2.4824 H       0  HOH0        0.2052
     42 H           8.7339    2.5869   -2.5500 H       0  HOH0        0.2052
@<TRIPOS>BOND
     1    42    40    1
     2    41    40    1
     3    31    30    1
     4    39    37    1
     5    33    32    1
     6    37    38    1
     7    30    32   ar
     8    30    28   ar
     9     7     6    1
    10    32    34   ar
    11    29    28    1
    12     2     1    1
    13    28    27   ar
    14     6     1    1
    15     6     8    2
    16     1    13    1
    17    21    20    1
    18    34    35    1
    19    34    36   ar
    20    27    36   ar
    21    27    26   ar
    22     9     8    1
    23     8    10    1
    24    20    26    1
    25    13    14    1
    26    13    12    2
    27    36    22   ar
    28    26    25   ar
    29    10    12    1
    30    10    11    1
    31    12     3    1
    32    22    23   ar
    33    22    15    1
    34    17    15    2
    35    25    23   ar
    36    25    16    1
    37     4     3    1
    38    18    15    2
    39     3     5    1
    40    23    24    1
    41    15    19    1
