@<TRIPOS>MOLECULE
2-(5,7-Dimethyl-3-methylsulfanyl-1-benzofuran-2-yl)acetic acid
 31 32 0 0 0
SMALL
GASTEIGER

@<TRIPOS>ATOM
      1 S           4.4914    3.5619    6.3930 S.3     1  LIG1       -0.1246
      2 O           2.9775    6.8502    4.7870 O.2     1  LIG1       -0.4577
      3 O           2.2980    8.3619    7.8383 O.2     1  LIG1       -0.2505
      4 O           4.0476    7.0436    8.2991 O.3     1  LIG1       -0.4803
      5 H           4.2840    7.6512    8.6252 H       1  LIG1        0.2951
      6 C           3.9739    4.9105    5.3965 C.ar    1  LIG1        0.0569
      7 C           4.4516    5.2651    4.0818 C.ar    1  LIG1        0.0344
      8 C           5.3572    4.7117    3.1782 C.ar    1  LIG1       -0.0470
      9 H           5.8038    3.9211    3.3802 H       1  LIG1        0.0628
     10 C           5.5816    5.3602    1.9702 C.ar    1  LIG1       -0.0494
     11 C           4.9001    6.5641    1.6959 C.ar    1  LIG1       -0.0524
     12 H           5.0611    6.9849    0.8817 H       1  LIG1        0.0624
     13 C           4.0011    7.1544    2.5767 C.ar    1  LIG1       -0.0073
     14 C           3.8088    6.4587    3.7576 C.ar    1  LIG1        0.1392
     15 C           3.1037    5.8784    5.7569 C.ar    1  LIG1        0.1303
     16 C           6.5480    4.7904    0.9606 C.3     1  LIG1       -0.0397
     17 H           7.4480    4.9507    1.2536 H       1  LIG1        0.0278
     18 H           6.4085    5.2135    0.1100 H       1  LIG1        0.0278
     19 H           6.4029    3.8458    0.8765 H       1  LIG1        0.0278
     20 C           3.2844    8.4428    2.2831 C.3     1  LIG1       -0.0362
     21 H           2.4176    8.4277    2.6958 H       1  LIG1        0.0279
     22 H           3.1862    8.5453    1.3339 H       1  LIG1        0.0279
     23 H           3.7925    9.1781    2.6330 H       1  LIG1        0.0279
     24 C           2.3148    6.1179    6.9906 C.3     1  LIG1        0.1038
     25 H           2.3372    5.3245    7.5497 H       1  LIG1        0.0458
     26 H           1.3902    6.2937    6.7552 H       1  LIG1        0.0458
     27 C           2.8740    7.2950    7.7599 C.2     1  LIG1        0.3121
     28 C           3.6905    2.1877    5.5334 C.3     1  LIG1       -0.0133
     29 H           2.7385    2.3135    5.5453 H       1  LIG1        0.0344
     30 H           3.9099    1.3632    5.9730 H       1  LIG1        0.0344
     31 H           3.9971    2.1558    4.6251 H       1  LIG1        0.0344
@<TRIPOS>BOND
     1    18    16    1
     2    19    16    1
     3    12    11    1
     4    16    17    1
     5    16    10    1
     6    22    20    1
     7    11    10   ar
     8    11    13   ar
     9    10     8   ar
    10    20    13    1
    11    20    23    1
    12    20    21    1
    13    13    14   ar
    14     8     9    1
    15     8     7   ar
    16    14     7   ar
    17    14     2   ar
    18     7     6   ar
    19    31    28    1
    20     2    15   ar
    21     6    15   ar
    22     6     1    1
    23    28    29    1
    24    28    30    1
    25    28     1    1
    26    15    24    1
    27    26    24    1
    28    24    25    1
    29    24    27    1
    30    27     3    2
    31    27     4    1
    32     4     5    1
