@<TRIPOS>MOLECULE
3,5-Dichloro-2-hydroxybenzaldehyde
 15 15 0 0 0
SMALL
GASTEIGER

@<TRIPOS>ATOM
      1 C           3.1758    4.8858    1.7145 C.ar    1  LIG1        0.0584
      2 C           3.7754    3.6251    1.7909 C.ar    1  LIG1        0.1453
      3 C           5.1655    3.5603    1.8574 C.ar    1  LIG1        0.0843
      4 C           5.9351    4.6970    1.8258 C.ar    1  LIG1       -0.0214
      5 H           6.8619    4.6386    1.8811 H       1  LIG1        0.0648
      6 C           5.3158    5.9343    1.7106 C.ar    1  LIG1        0.0432
      7 C           3.9518    6.0359    1.6764 C.ar    1  LIG1       -0.0296
      8 H           3.5461    6.8712    1.6283 H       1  LIG1        0.0640
      9 C           1.7076    4.9956    1.7152 C.2     1  LIG1        0.1538
     10 H           1.3306    5.8452    1.6974 H       1  LIG1        0.1083
     11 CL          5.9259    2.0061    1.9729 Cl      1  LIG1       -0.0797
     12 CL          6.3135    7.3570    1.6202 Cl      1  LIG1       -0.0835
     13 O           0.9615    4.0350    1.7376 O.2     1  LIG1       -0.2956
     14 O           3.0792    2.4773    1.8014 O.3     1  LIG1       -0.5046
     15 H           2.2777    2.6435    1.7573 H       1  LIG1        0.2922
@<TRIPOS>BOND
     1    12     6    1
     2     8     7    1
     3     7     6   ar
     4     7     1   ar
     5    10     9    1
     6     6     4   ar
     7     1     9    1
     8     1     2   ar
     9     9    13    2
    10    15    14    1
    11     2    14    1
    12     2     3   ar
    13     4     3   ar
    14     4     5    1
    15     3    11    1
