@<TRIPOS>MOLECULE
<i>N</i>-(4-Chloro-2-nitrophenyl)-<i>N</i>-(methylsulfonyl)acetamide
 27 27 0 0 0
SMALL
GASTEIGER

@<TRIPOS>ATOM
      1 S           3.7696    9.2478    1.8948 S.O2    1  LIG1        0.0490
      2 CL         -2.0266    6.3910   -0.0163 Cl      1  LIG1       -0.0835
      3 N           2.5838    8.6586    2.9469 N.am    1  LIG1       -0.1421
      4 O           3.2143    9.0679    0.5969 O.2     1  LIG1       -0.1549
      5 C           1.3991    8.1154    2.3449 C.ar    1  LIG1        0.0895
      6 O           3.8215    9.1570    4.7680 O.2     1  LIG1       -0.2740
      7 N           0.1746   10.3119    2.3919 N.pl3   1  LIG1        0.0584
      8 C           0.2867    8.8887    2.0047 C.ar    1  LIG1        0.1505
      9 O          -0.6457   10.9881    1.8214 O.2     1  LIG1       -0.1261
     10 C          -0.7328    7.0393    0.9349 C.ar    1  LIG1        0.0433
     11 O           4.1502   10.5512    2.3045 O.2     1  LIG1       -0.1549
     12 O           0.8706   10.7334    3.2892 O.2     1  LIG1       -0.1261
     13 C           1.3932    6.7790    1.9831 C.ar    1  LIG1       -0.0350
     14 H           2.1188    6.2414    2.2041 H       1  LIG1        0.0638
     15 C           0.3247    6.2311    1.2991 C.ar    1  LIG1       -0.0414
     16 H           0.3174    5.3257    1.0871 H       1  LIG1        0.0633
     17 C           2.7906    8.6963    4.3375 C.2     1  LIG1        0.2358
     18 C          -0.7699    8.3691    1.2962 C.ar    1  LIG1       -0.0112
     19 H          -1.4946    8.9038    1.0649 H       1  LIG1        0.0655
     20 C           5.1031    8.1456    2.1076 C.3     1  LIG1        0.0742
     21 H           4.8155    7.2524    1.9053 H       1  LIG1        0.0482
     22 H           5.4082    8.1852    3.0171 H       1  LIG1        0.0482
     23 H           5.8192    8.3926    1.5177 H       1  LIG1        0.0482
     24 C           1.7196    8.1163    5.1893 C.3     1  LIG1        0.0142
     25 H           0.8611    8.3813    4.8493 H       1  LIG1        0.0323
     26 H           1.8186    8.4351    6.0891 H       1  LIG1        0.0323
     27 H           1.7851    7.1591    5.1795 H       1  LIG1        0.0323
@<TRIPOS>BOND
     1     2    10    1
     2     4     1    2
     3    10    18   ar
     4    10    15   ar
     5    19    18    1
     6    16    15    1
     7    18     8   ar
     8    15    13   ar
     9    23    20    1
    10     9     7    2
    11     1    20    1
    12     1    11    2
    13     1     3    1
    14    21    20    1
    15    13    14    1
    16    13     5   ar
    17     8     5   ar
    18     8     7    1
    19    20    22    1
    20     5     3    1
    21     7    12    2
    22     3    17   am
    23    17     6    2
    24    17    24    1
    25    25    24    1
    26    27    24    1
    27    24    26    1
