@<TRIPOS>MOLECULE
(2<i>S</i>)-Ethyl 2-[(<i>S</i>~s~)-benzylsulfinylamino]-3,3-dimethylbutanoate
 43 43 0 0 0
SMALL
GASTEIGER

@<TRIPOS>ATOM
      1 S          -2.8579    1.8826    6.9757 S.3     1  LIG1        0.0310
      2 O           0.6598    0.2438    5.7896 O.2     1  LIG1       -0.2490
      3 O           1.1813    1.8914    7.1863 O.3     1  LIG1       -0.4638
      4 O          -2.4451    2.7825    5.8662 O.3     1  LIG1       -0.1457
      5 N          -1.9556    0.5156    7.0394 N.3     1  LIG1       -0.2338
      6 C          -0.6929    0.5854    7.7595 C.3     1  LIG1        0.1208
      7 H          -0.7501    1.3470    8.3740 H       1  LIG1        0.0590
      8 C           0.4531    0.8673    6.7952 C.2     1  LIG1        0.3257
      9 C           2.3390    2.2244    6.3431 C.3     1  LIG1        0.0897
     10 H           2.9611    1.4801    6.3193 H       1  LIG1        0.0694
     11 H           2.0494    2.4114    5.4368 H       1  LIG1        0.0694
     12 C           2.9765    3.3837    6.9080 C.3     1  LIG1       -0.0306
     13 H           2.4187    4.1532    6.7735 H       1  LIG1        0.0262
     14 H           3.8237    3.5239    6.4797 H       1  LIG1        0.0262
     15 H           3.1125    3.2478    7.8484 H       1  LIG1        0.0262
     16 C          -0.4431   -0.6861    8.6202 C.3     1  LIG1       -0.0112
     17 C           0.9694   -0.6221    9.1944 C.3     1  LIG1       -0.0581
     18 H           1.1142   -1.3751    9.7718 H       1  LIG1        0.0236
     19 H           1.0748    0.1899    9.6952 H       1  LIG1        0.0236
     20 H           1.6080   -0.6415    8.4775 H       1  LIG1        0.0236
     21 C          -0.5983   -1.9561    7.7998 C.3     1  LIG1       -0.0581
     22 H          -0.4241   -2.7192    8.3554 H       1  LIG1        0.0236
     23 H           0.0255   -1.9432    7.0694 H       1  LIG1        0.0236
     24 H          -1.4927   -2.0072    7.4553 H       1  LIG1        0.0236
     25 C          -1.4766   -0.6818    9.7397 C.3     1  LIG1       -0.0581
     26 H          -2.3581   -0.6537    9.3610 H       1  LIG1        0.0236
     27 H          -1.3421    0.0892   10.2963 H       1  LIG1        0.0236
     28 H          -1.3796   -1.4779   10.2673 H       1  LIG1        0.0236
     29 C          -4.3875    1.0816    6.3855 C.3     1  LIG1        0.0506
     30 H          -5.0442    1.7656    6.1817 H       1  LIG1        0.0452
     31 H          -4.1971    0.5998    5.5661 H       1  LIG1        0.0452
     32 C          -4.9580    0.1424    7.3767 C.ar    1  LIG1       -0.0349
     33 C          -4.7408   -1.2075    7.2794 C.ar    1  LIG1       -0.0577
     34 H          -4.2571   -1.5426    6.5593 H       1  LIG1        0.0621
     35 C          -5.2286   -2.0784    8.2354 C.ar    1  LIG1       -0.0615
     36 H          -5.0722   -2.9925    8.1578 H       1  LIG1        0.0618
     37 C          -5.9467   -1.5894    9.3020 C.ar    1  LIG1       -0.0617
     38 H          -6.2732   -2.1741    9.9476 H       1  LIG1        0.0618
     39 C          -6.1759   -0.2805    9.4127 C.ar    1  LIG1       -0.0615
     40 H          -6.6708    0.0403   10.1328 H       1  LIG1        0.0618
     41 C          -5.6896    0.6005    8.4764 C.ar    1  LIG1       -0.0577
     42 H          -5.8486    1.5110    8.5758 H       1  LIG1        0.0621
     43 H          -1.8873    0.0072    6.3524 H       1  LIG1        0.1373
@<TRIPOS>BOND
     1    11     9    1
     2    31    29    1
     3     2     8    2
     4     4     1    1
     5    30    29    1
     6    10     9    1
     7     9    12    1
     8     9     3    1
     9    43     5    1
    10    29     1    1
    11    29    32    1
    12    14    12    1
    13    34    33    1
    14    13    12    1
    15     8     3    1
    16     8     6    1
    17    12    15    1
    18     1     5    1
    19     5     6    1
    20    23    21    1
    21    33    32   ar
    22    33    35   ar
    23    32    41   ar
    24    24    21    1
    25     6     7    1
    26     6    16    1
    27    21    22    1
    28    21    16    1
    29    36    35    1
    30    35    37   ar
    31    41    42    1
    32    41    39   ar
    33    20    17    1
    34    16    17    1
    35    16    25    1
    36    17    19    1
    37    17    18    1
    38    37    39   ar
    39    37    38    1
    40    26    25    1
    41    39    40    1
    42    25    28    1
    43    25    27    1
