@<TRIPOS>MOLECULE
2-[(3-Bromophenyl)iminomethyl]phenol
 26 27 0 0 0
SMALL
GASTEIGER

@<TRIPOS>ATOM
      1 BR          0.9882    6.4758    6.9318 Br      1  LIG1       -0.0502
      2 N           0.8968    4.6892   11.7827 N.2     1  LIG1       -0.2548
      3 C           0.7968    5.3849    9.5278 C.ar    1  LIG1       -0.0223
      4 H           1.2658    6.1448    9.7840 H       1  LIG1        0.0650
      5 C           1.1704    4.0727   14.0728 C.ar    1  LIG1        0.0345
      6 C           0.4428    5.2173    8.2050 C.ar    1  LIG1        0.0199
      7 C           1.0670    3.0956   15.0061 C.ar    1  LIG1       -0.0496
      8 H           0.7817    2.2524   14.7369 H       1  LIG1        0.0625
      9 C           0.4637    4.4574   10.4572 C.ar    1  LIG1        0.0649
     10 C           2.2729    5.4228   15.6911 C.ar    1  LIG1       -0.0195
     11 H           2.7117    6.2070   15.9303 H       1  LIG1        0.0654
     12 C           1.3525    3.2927   16.3081 C.ar    1  LIG1       -0.0609
     13 H           1.0947    2.6877   16.9642 H       1  LIG1        0.0618
     14 C           0.7705    3.8260   12.7095 C.2     1  LIG1        0.0389
     15 H           0.3997    2.9997   12.4977 H       1  LIG1        0.0837
     16 C           1.8543    5.2637   14.4323 C.ar    1  LIG1        0.1254
     17 C           2.0707    4.4669   16.6218 C.ar    1  LIG1       -0.0583
     18 H           2.4081    4.5828   17.4806 H       1  LIG1        0.0619
     19 O           2.0478    6.2249   13.5356 O.3     1  LIG1       -0.5061
     20 H           1.7427    5.9878   12.8114 H       1  LIG1        0.2922
     21 C          -0.2031    3.3275   10.0324 C.ar    1  LIG1       -0.0363
     22 H          -0.3877    2.6666   10.6625 H       1  LIG1        0.0639
     23 C          -0.2414    4.0927    7.8194 C.ar    1  LIG1       -0.0476
     24 H          -0.4671    3.9725    6.9253 H       1  LIG1        0.0629
     25 C          -0.6090    3.1198    8.7684 C.ar    1  LIG1       -0.0587
     26 H          -1.1074    2.3715    8.5318 H       1  LIG1        0.0619
@<TRIPOS>BOND
     1    24    23    1
     2     1     6    1
     3    23     6   ar
     4    23    25   ar
     5     6     3   ar
     6    26    25    1
     7    25    21   ar
     8     3     4    1
     9     3     9   ar
    10    21     9   ar
    11    21    22    1
    12     9     2    1
    13     2    14    2
    14    15    14    1
    15    14     5    1
    16    20    19    1
    17    19    16    1
    18     5    16   ar
    19     5     7   ar
    20    16    10   ar
    21     8     7    1
    22     7    12   ar
    23    10    11    1
    24    10    17   ar
    25    12    17   ar
    26    12    13    1
    27    17    18    1
