@<TRIPOS>MOLECULE
<i>N</i>-Cyclohexyl-2-fluorobenzamide
 32 33 0 0 0
SMALL
GASTEIGER

@<TRIPOS>ATOM
      1 O           6.3116    6.0097    4.1190 O.2     1  LIG1       -0.2701
      2 C           5.1592    6.2128    3.7081 C.2     1  LIG1        0.2471
      3 C           4.9084    7.3309    2.7334 C.ar    1  LIG1        0.0718
      4 C           3.8803    7.3747    1.7918 C.ar    1  LIG1        0.1355
      5 F           3.0383    6.3177    1.6671 F       1  LIG1       -0.2047
      6 C           3.6884    8.4438    0.9328 C.ar    1  LIG1       -0.0257
      7 H           2.9795    8.4334    0.2997 H       1  LIG1        0.0646
      8 C           4.5481    9.5305    1.0102 C.ar    1  LIG1       -0.0590
      9 H           4.4205   10.2796    0.4395 H       1  LIG1        0.0618
     10 C           5.6027    9.5221    1.9285 C.ar    1  LIG1       -0.0609
     11 H           6.1988   10.2607    1.9777 H       1  LIG1        0.0618
     12 C           5.7738    8.4301    2.7670 C.ar    1  LIG1       -0.0469
     13 H           6.4987    8.4288    3.3811 H       1  LIG1        0.0626
     14 N           4.0975    5.5055    4.1170 N.am    1  LIG1       -0.3084
     15 H           3.3030    5.7668    3.8639 H       1  LIG1        0.1493
     16 C           4.2208    4.4456    5.1185 C.3     1  LIG1        0.0234
     17 H           5.1354    4.0485    5.0409 H       1  LIG1        0.0498
     18 C           3.1991    3.3477    4.8355 C.3     1  LIG1       -0.0345
     19 H           3.3441    2.9872    3.9255 H       1  LIG1        0.0283
     20 H           2.2854    3.7278    4.8728 H       1  LIG1        0.0283
     21 C           3.3254    2.2185    5.8600 C.3     1  LIG1       -0.0514
     22 H           4.2094    1.7829    5.7634 H       1  LIG1        0.0266
     23 H           2.6280    1.5374    5.6868 H       1  LIG1        0.0266
     24 C           3.1745    2.7515    7.2880 C.3     1  LIG1       -0.0529
     25 H           2.2540    3.0930    7.4165 H       1  LIG1        0.0265
     26 H           3.3195    2.0141    7.9326 H       1  LIG1        0.0265
     27 C           4.1761    3.8741    7.5654 C.3     1  LIG1       -0.0514
     28 H           4.0146    4.2412    8.4703 H       1  LIG1        0.0266
     29 H           5.0951    3.5058    7.5447 H       1  LIG1        0.0266
     30 C           4.0582    4.9968    6.5355 C.3     1  LIG1       -0.0345
     31 H           4.7551    5.6786    6.7073 H       1  LIG1        0.0283
     32 H           3.1740    5.4331    6.6208 H       1  LIG1        0.0283
@<TRIPOS>BOND
     1     7     6    1
     2     9     8    1
     3     6     8   ar
     4     6     4   ar
     5     8    10   ar
     6     5     4    1
     7     4     3   ar
     8    10    11    1
     9    10    12   ar
    10     3    12   ar
    11     3     2    1
    12    12    13    1
    13     2    14   am
    14     2     1    2
    15    15    14    1
    16    19    18    1
    17    14    16    1
    18    18    20    1
    19    18    16    1
    20    18    21    1
    21    17    16    1
    22    16    30    1
    23    23    21    1
    24    22    21    1
    25    21    24    1
    26    30    32    1
    27    30    31    1
    28    30    27    1
    29    24    25    1
    30    24    27    1
    31    24    26    1
    32    29    27    1
    33    27    28    1
