@<TRIPOS>MOLECULE
<i>N</i>,<i>N</i>'-Bis-(3,5-dichlorobenzylidene)ethane-1,2-diamine
 17 17 0 0 0
SMALL
GASTEIGER

@<TRIPOS>ATOM
      1 CL          2.3347    4.0885   -0.2088 Cl      1  LIG1       -0.0835
      2 CL          4.7194    7.6725    3.0138 Cl      1  LIG1       -0.0835
      3 N           5.5534    1.3940    3.1667 N.2     1  LIG1       -0.2892
      4 C           4.0909    3.4053    1.7131 C.ar    1  LIG1       -0.0347
      5 C           3.4303    4.4483    1.0879 C.ar    1  LIG1        0.0430
      6 C           3.6015    5.7756    1.4692 C.ar    1  LIG1       -0.0250
      7 C           4.4811    6.0310    2.5133 C.ar    1  LIG1        0.0430
      8 C           5.1645    5.0144    3.1687 C.ar    1  LIG1       -0.0347
      9 C           4.9616    3.6949    2.7682 C.ar    1  LIG1       -0.0046
     10 C           5.6571    2.6109    3.4932 C.2     1  LIG1        0.0294
     11 C           6.3047    0.4358    3.9672 C.3     1  LIG1        0.0591
     12 H           3.9606    2.4992    1.4183 H       1  LIG1        0.0638
     13 H           3.2040    6.5025    1.0532 H       1  LIG1        0.0647
     14 H           5.7493    5.2185    3.9389 H       1  LIG1        0.0638
     15 H           6.1098    2.9197    4.2268 H       1  LIG1        0.0831
     16 H           5.6323   -0.1682    4.5007 H       1  LIG1        0.0526
     17 H           6.8828    0.8648    4.6341 H       1  LIG1        0.0526
@<TRIPOS>BOND
     1     1     5    1
     2    13     6    1
     3     5     6   ar
     4     5     4   ar
     5    12     4    1
     6     6     7   ar
     7     4     9   ar
     8     7     2    1
     9     7     8   ar
    10     9     8   ar
    11     9    10    1
    12     3    10    2
    13     3    11    1
    14     8    14    1
    15    10    15    1
    16    11    16    1
    17    11    17    1
