@<TRIPOS>MOLECULE
5,6-Dioxo-1,10-phenanthrolin-1-ium trifluoromethanesulfonate
 62 64 0 0 0
SMALL
GASTEIGER

@<TRIPOS>ATOM
      1 S           3.3039    4.2502   11.1564 S.3     1  LIG1        0.2092
      2 S           5.3459    6.3100    3.0793 S.3     2  LIG2        0.2092
      3 F           3.8226    1.7091   11.3761 F       1  LIG1       -0.1486
      4 F           5.4879    2.9136   10.7579 F       1  LIG1       -0.1486
      5 F           3.9219    2.4308    9.3742 F       1  LIG1       -0.1486
      6 F           4.7750    8.0422    4.9599 F       2  LIG2       -0.1486
      7 F           4.7862    8.8594    2.9724 F       2  LIG2       -0.1486
      8 F           3.1606    7.6261    3.6133 F       2  LIG2       -0.1486
      9 O           3.6669    4.3581   12.5411 O.3     1  LIG1       -0.0397
     10 O           3.8819    5.2758   10.3088 O.2     1  LIG1       -0.1362
     11 O           1.9178    3.9892   10.9045 O.2     1  LIG1       -0.1362
     12 O           6.7361    6.5708    3.3122 O.2     2  LIG2       -0.1362
     13 O           4.7931    5.2522    3.9045 O.3     2  LIG2       -0.0397
     14 O           4.9455    6.2545    1.7013 O.2     2  LIG2       -0.1362
     15 O          -1.8157    1.9756    2.6513 O.2     3  LIG3       -0.2834
     16 O          -2.0652    2.0269    5.3586 O.2     3  LIG3       -0.2831
     17 O          10.5036    8.5057   11.5787 O.2     4  LIG4       -0.2834
     18 O          10.6958    8.5977    8.8660 O.2     4  LIG4       -0.2831
     19 N           2.3860    4.0745    2.9932 N.pl3   3  LIG3       -0.3188
     20 H           3.0036    4.4139    3.5202 H       3  LIG3        0.1517
     21 N           2.2556    4.0215    5.6705 N.ar    3  LIG3       -0.2530
     22 N           6.2778    6.4729   11.2380 N.pl3   4  LIG4       -0.3188
     23 H           5.6742    6.1043   10.7151 H       4  LIG4        0.1517
     24 N           6.4310    6.4611    8.5599 N.ar    4  LIG4       -0.2530
     25 C           4.1776    2.7429   10.6404 C.3     1  LIG1        0.5487
     26 C           4.4778    7.7859    3.6916 C.3     2  LIG2        0.5487
     27 C           2.5916    4.1025    1.6682 C.2     3  LIG3       -0.0095
     28 H           3.3927    4.4745    1.3191 H       3  LIG3        0.0778
     29 C           1.6434    3.5919    0.8159 C.2     3  LIG3       -0.0617
     30 H           1.7856    3.6023   -0.1228 H       3  LIG3        0.0591
     31 C           0.4812    3.0633    1.3396 C.3     3  LIG3        0.0197
     32 H          -0.1896    2.7185    0.7619 H       3  LIG3        0.0402
     33 C           0.2976    3.0374    2.7240 C.2     3  LIG3        0.0340
     34 C          -0.9233    2.4430    3.3175 C.2     3  LIG3        0.2315
     35 C          -1.0469    2.4470    4.8594 C.2     3  LIG3        0.2348
     36 C           0.0894    2.9692    5.6445 C.ar    3  LIG3        0.0527
     37 C           0.1058    2.8985    7.0371 C.ar    3  LIG3       -0.0473
     38 H          -0.6272    2.5168    7.5052 H       3  LIG3        0.0626
     39 C           1.1855    3.3837    7.7231 C.ar    3  LIG3       -0.0429
     40 H           1.2165    3.3416    8.6711 H       3  LIG3        0.0633
     41 C           2.2307    3.9349    7.0079 C.ar    3  LIG3        0.0283
     42 H           2.9756    4.2729    7.4920 H       3  LIG3        0.0830
     43 C           1.1981    3.5244    5.0164 C.ar    3  LIG3        0.0962
     44 C           1.2826    3.5532    3.5530 C.2     3  LIG3        0.0649
     45 C           6.0519    6.5010   12.5563 C.2     4  LIG4       -0.0095
     46 H           5.2470    6.1355   12.9057 H       4  LIG4        0.0778
     47 C           6.9822    7.0571   13.4135 C.2     4  LIG4       -0.0617
     48 H           6.8170    7.0980   14.3476 H       4  LIG4        0.0591
     49 C           8.1507    7.5505   12.8860 C.3     4  LIG4        0.0197
     50 H           8.8172    7.9096   13.4603 H       4  LIG4        0.0402
     51 C           8.3588    7.5252   11.5031 C.2     4  LIG4        0.0340
     52 C           9.5956    8.0657   10.9047 C.2     4  LIG4        0.2315
     53 C           9.7099    8.0844    9.3580 C.2     4  LIG4        0.2348
     54 C           8.6096    7.5043    8.5852 C.ar    4  LIG4        0.0527
     55 C           8.6268    7.5164    7.1862 C.ar    4  LIG4       -0.0473
     56 H           9.3737    7.8653    6.7143 H       4  LIG4        0.0626
     57 C           7.5457    7.0143    6.5103 C.ar    4  LIG4       -0.0429
     58 H           7.5259    7.0225    5.5602 H       4  LIG4        0.0633
     59 C           6.4826    6.4952    7.2290 C.ar    4  LIG4        0.0283
     60 H           5.7456    6.1421    6.7447 H       4  LIG4        0.0830
     61 C           7.4834    6.9670    9.2128 C.ar    4  LIG4        0.0962
     62 C           7.3870    6.9838   10.6796 C.2     4  LIG4        0.0649
@<TRIPOS>BOND
     1    30    29    1
     2    32    31    1
     3    29    31    1
     4    29    27    2
     5    28    27    1
     6    31    33    1
     7    27    19    1
     8    14     2    2
     9    15    34    2
    10    33    34    1
    11    33    44    2
    12     7    26    1
    13    19    20    1
    14    19    44    1
    15     2    12    2
    16     2    26    1
    17     2    13    1
    18    34    35    1
    19    44    43    1
    20     8    26    1
    21    26     6    1
    22    35    16    2
    23    35    36    1
    24    43    36   ar
    25    43    21   ar
    26    58    57    1
    27    36    37   ar
    28    21    41   ar
    29    57    55   ar
    30    57    59   ar
    31    56    55    1
    32    60    59    1
    33    41    42    1
    34    41    39   ar
    35    37    38    1
    36    37    39   ar
    37    55    54   ar
    38    59    24   ar
    39    39    40    1
    40    24    61   ar
    41    54    61   ar
    42    54    53    1
    43    18    53    2
    44    61    62    1
    45    53    52    1
    46     5    25    1
    47    10     1    2
    48    25     4    1
    49    25     1    1
    50    25     3    1
    51    62    22    1
    52    62    51    2
    53    23    22    1
    54    11     1    2
    55    52    51    1
    56    52    17    2
    57     1     9    1
    58    22    45    1
    59    51    49    1
    60    45    46    1
    61    45    47    2
    62    49    47    1
    63    49    50    1
    64    47    48    1
