@<TRIPOS>MOLECULE
<i>N</i>-(2-Ethylphenyl)phthalimide
 32 34 0 0 0
SMALL
GASTEIGER

@<TRIPOS>ATOM
      1 O           7.3993    1.8573   11.2413 O.2     1  LIG1       -0.2692
      2 O           5.4473    0.1638   15.0263 O.2     1  LIG1       -0.2692
      3 N           6.7524    0.9307   13.2668 N.am    1  LIG1       -0.2021
      4 C           6.5304    1.5044   12.0012 C.2     1  LIG1        0.2582
      5 C           5.0520    1.5738   11.8390 C.ar    1  LIG1        0.0498
      6 C           4.2971    2.0661   10.7925 C.ar    1  LIG1       -0.0489
      7 H           4.7045    2.4384   10.0200 H       1  LIG1        0.0625
      8 C           2.9114    1.9938   10.9192 C.ar    1  LIG1       -0.0610
      9 H           2.3599    2.3156   10.2152 H       1  LIG1        0.0618
     10 C           2.3202    1.4567   12.0607 C.ar    1  LIG1       -0.0610
     11 H           1.3733    1.4139   12.1177 H       1  LIG1        0.0618
     12 C           3.0895    0.9831   13.1191 C.ar    1  LIG1       -0.0489
     13 H           2.6883    0.6312   13.9052 H       1  LIG1        0.0625
     14 C           4.4617    1.0464   12.9789 C.ar    1  LIG1        0.0498
     15 C           5.5401    0.6372   13.9182 C.2     1  LIG1        0.2582
     16 C           8.0496    0.7651   13.8727 C.ar    1  LIG1        0.0477
     17 C           8.8417   -0.3066   13.4822 C.ar    1  LIG1       -0.0396
     18 H           8.5374   -0.9079   12.8141 H       1  LIG1        0.0636
     19 C          10.0830   -0.4928   14.0772 C.ar    1  LIG1       -0.0600
     20 H          10.6319   -1.2219   13.8141 H       1  LIG1        0.0618
     21 C          10.5179    0.3871   15.0565 C.ar    1  LIG1       -0.0614
     22 H          11.3622    0.2565   15.4714 H       1  LIG1        0.0618
     23 C           9.7177    1.4620   15.4309 C.ar    1  LIG1       -0.0568
     24 H          10.0273    2.0622   16.0984 H       1  LIG1        0.0621
     25 C           8.4650    1.6780   14.8447 C.ar    1  LIG1       -0.0258
     26 C           7.6570    2.8951   15.2228 C.3     1  LIG1       -0.0288
     27 H           7.7825    3.0859   16.1873 H       1  LIG1        0.0311
     28 H           6.6961    2.7120   15.0701 H       1  LIG1        0.0311
     29 C           8.0780    4.1166   14.4052 C.3     1  LIG1       -0.0612
     30 H           7.5370    4.8893   14.6710 H       1  LIG1        0.0233
     31 H           7.9405    3.9340   13.4518 H       1  LIG1        0.0233
     32 H           9.0253    4.3079   14.5690 H       1  LIG1        0.0233
@<TRIPOS>BOND
     1     7     6    1
     2     9     8    1
     3     6     8   ar
     4     6     5   ar
     5     8    10   ar
     6     1     4    2
     7     5     4    1
     8     5    14   ar
     9     4     3   am
    10    10    11    1
    11    10    12   ar
    12    18    17    1
    13    14    12   ar
    14    14    15    1
    15    12    13    1
    16     3    16    1
    17     3    15   am
    18    31    29    1
    19    17    16   ar
    20    17    19   ar
    21    20    19    1
    22    16    25   ar
    23    15     2    2
    24    19    21   ar
    25    29    32    1
    26    29    30    1
    27    29    26    1
    28    25    26    1
    29    25    23   ar
    30    21    23   ar
    31    21    22    1
    32    28    26    1
    33    26    27    1
    34    23    24    1
