@<TRIPOS>MOLECULE
Methyl 6-bromo-7-methoxy-1,3-benzodioxole-5-carboxylate
 25 26 0 0 0
SMALL
GASTEIGER

@<TRIPOS>ATOM
      1 BR         -0.8590    7.6195    1.6052 Br      1  LIG1       -0.0455
      2 O           0.7576    5.2222    0.6291 O.2     1  LIG1       -0.2449
      3 O          -0.2877    3.2917    0.9951 O.3     1  LIG1       -0.4644
      4 O          -1.3539    3.5202    5.9157 O.3     1  LIG1       -0.4524
      5 O          -2.0689    5.6643    6.3827 O.3     1  LIG1       -0.4489
      6 O          -1.8985    7.8987    4.3129 O.3     1  LIG1       -0.4902
      7 C          -0.9450    6.2487    2.9102 C.ar    1  LIG1        0.0773
      8 C          -1.4830    6.6087    4.1609 C.ar    1  LIG1        0.1800
      9 C          -1.5678    5.6127    5.1032 C.ar    1  LIG1        0.2087
     10 C          -1.1452    4.3268    4.8234 C.ar    1  LIG1        0.1707
     11 C          -0.6529    3.9473    3.6069 C.ar    1  LIG1       -0.0008
     12 H          -0.4019    3.0677    3.4383 H       1  LIG1        0.0664
     13 C          -0.5430    4.9434    2.6239 C.ar    1  LIG1        0.0801
     14 C           0.0460    4.5475    1.3073 C.2     1  LIG1        0.3402
     15 C           0.2436    2.7918   -0.2529 C.3     1  LIG1        0.0820
     16 H           0.0083    3.3917   -0.9645 H       1  LIG1        0.0661
     17 H          -0.1238    1.9230   -0.4327 H       1  LIG1        0.0661
     18 H           1.1998    2.7274   -0.1909 H       1  LIG1        0.0661
     19 C          -1.8648    4.3662    6.9321 C.3     1  LIG1        0.2334
     20 H          -1.2372    4.4140    7.6705 H       1  LIG1        0.1166
     21 H          -2.7039    4.0131    7.2675 H       1  LIG1        0.1166
     22 C          -2.1424    8.4106    5.6156 C.3     1  LIG1        0.0790
     23 H          -2.9802    8.0724    5.9408 H       1  LIG1        0.0660
     24 H          -2.1758    9.3690    5.5822 H       1  LIG1        0.0660
     25 H          -1.4355    8.1355    6.2048 H       1  LIG1        0.0660
@<TRIPOS>BOND
     1    16    15    1
     2    17    15    1
     3    15    18    1
     4    15     3    1
     5     2    14    2
     6     3    14    1
     7    14    13    1
     8     1     7    1
     9    13     7   ar
    10    13    11   ar
    11     7     8   ar
    12    12    11    1
    13    11    10   ar
    14     8     6    1
    15     8     9   ar
    16     6    22    1
    17    10     9   ar
    18    10     4    1
    19     9     5    1
    20    24    22    1
    21    22    23    1
    22    22    25    1
    23     4    19    1
    24     5    19    1
    25    19    21    1
    26    19    20    1
