@<TRIPOS>MOLECULE
3',6'-Bis(ethylamino)-2-[(2-hydroxyethyl)amino]-2',7'- dimethylspiro[isoindoline-1,9'-xanthen]-3-one
 67 71 0 0 0
SMALL
GASTEIGER

@<TRIPOS>ATOM
      1 O           4.8382    2.2553    3.7366 O.3     1  LIG1       -0.4552
      2 C           6.9436    2.6793    2.8269 C.ar    1  LIG1        0.0021
      3 H           7.1003    1.7633    2.8630 H       1  LIG1        0.0673
      4 C           3.6243    2.6930    4.2293 C.ar    1  LIG1        0.1361
      5 C           1.9722    4.3017    4.7218 C.ar    1  LIG1       -0.0477
      6 H           1.6931    5.1883    4.7194 H       1  LIG1        0.0626
      7 C           3.2281    4.0098    4.1891 C.ar    1  LIG1        0.0290
      8 C           5.4554    4.5395    3.2262 C.ar    1  LIG1        0.0290
      9 N           4.2955    6.1701    4.6786 N.am    1  LIG1       -0.2131
     10 C           4.1204    5.1051    3.6556 C.3     1  LIG1        0.1356
     11 C           5.7324    3.1909    3.2727 C.ar    1  LIG1        0.1361
     12 C           2.8087    1.6988    4.7517 C.ar    1  LIG1        0.0021
     13 H           3.1068    0.8174    4.7645 H       1  LIG1        0.0673
     14 C           7.9268    3.5307    2.3241 C.ar    1  LIG1        0.0336
     15 C           6.4627    5.3706    2.7277 C.ar    1  LIG1       -0.0477
     16 H           6.2951    6.2847    2.6916 H       1  LIG1        0.0626
     17 C           1.1232    3.3603    5.2498 C.ar    1  LIG1       -0.0290
     18 O           3.7115    8.3458    5.0854 O.2     1  LIG1       -0.2686
     19 N           9.1251    3.0497    1.8285 N.pl3   1  LIG1       -0.3438
     20 H           9.7811    3.6234    1.7562 H       1  LIG1        0.1461
     21 C           3.4807    5.9308    2.5523 C.ar    1  LIG1       -0.0014
     22 C           1.5502    2.0082    5.2568 C.ar    1  LIG1        0.0336
     23 C           7.6803    4.9221    2.2888 C.ar    1  LIG1       -0.0290
     24 N           4.6932    5.8089    5.9704 N.3     1  LIG1       -0.2341
     25 H           4.1277    6.2361    6.5163 H       1  LIG1        0.1446
     26 C           3.3271    7.2405    2.9442 C.ar    1  LIG1        0.0441
     27 N           0.7170    1.0467    5.8050 N.pl3   1  LIG1       -0.3438
     28 H          -0.1625    1.2182    5.8045 H       1  LIG1        0.1461
     29 C          -0.1999    3.7557    5.8498 C.3     1  LIG1       -0.0380
     30 H          -0.3229    4.7032    5.7551 H       1  LIG1        0.0278
     31 H          -0.2113    3.5228    6.7807 H       1  LIG1        0.0278
     32 H          -0.9086    3.2944    5.3949 H       1  LIG1        0.0278
     33 C           3.7872    7.3698    4.3416 C.2     1  LIG1        0.2619
     34 C           3.1111    5.5301    1.2921 C.ar    1  LIG1       -0.0551
     35 H           3.2041    4.6428    1.0270 H       1  LIG1        0.0621
     36 C           8.7237    5.8719    1.7720 C.3     1  LIG1       -0.0380
     37 H           8.3934    6.7712    1.8288 H       1  LIG1        0.0278
     38 H           8.9233    5.6606    0.8570 H       1  LIG1        0.0278
     39 H           9.5204    5.7892    2.3009 H       1  LIG1        0.0278
     40 C           2.5980    6.4815    0.4258 C.ar    1  LIG1       -0.0614
     41 H           2.3410    6.2276   -0.4314 H       1  LIG1        0.0618
     42 C           2.4616    7.7941    0.8110 C.ar    1  LIG1       -0.0610
     43 H           2.1278    8.4171    0.2063 H       1  LIG1        0.0618
     44 C           2.8121    8.1997    2.0802 C.ar    1  LIG1       -0.0492
     45 H           2.7091    9.0837    2.3488 H       1  LIG1        0.0625
     46 C           1.0716   -0.3598    5.8690 C.3     1  LIG1        0.0063
     47 H           0.5321   -0.7859    6.5526 H       1  LIG1        0.0458
     48 H           1.9999   -0.4339    6.1401 H       1  LIG1        0.0458
     49 C          10.7953    1.4442    1.1316 C.3     1  LIG1       -0.0496
     50 H          10.9957    0.5059    1.1127 H       1  LIG1        0.0245
     51 H          11.4728    1.9058    1.6313 H       1  LIG1        0.0245
     52 H          10.7738    1.7848    0.2339 H       1  LIG1        0.0245
     53 C           9.4473    1.6607    1.7858 C.3     1  LIG1        0.0063
     54 H           8.7653    1.1849    1.2870 H       1  LIG1        0.0458
     55 H           9.4644    1.3046    2.6873 H       1  LIG1        0.0458
     56 C           0.8910   -1.0811    4.6076 C.3     1  LIG1       -0.0496
     57 H           1.1576   -1.9957    4.7224 H       1  LIG1        0.0245
     58 H           1.4279   -0.6731    3.9263 H       1  LIG1        0.0245
     59 H          -0.0338   -1.0473    4.3505 H       1  LIG1        0.0245
     60 C           6.3862    5.8048    7.6837 C.3     1  LIG1        0.0583
     61 H           6.2926    4.8440    7.7800 H       1  LIG1        0.0570
     62 H           7.3048    6.0396    7.8875 H       1  LIG1        0.0570
     63 C           6.0719    6.1971    6.2775 C.3     1  LIG1        0.0371
     64 H           6.1754    7.1564    6.1720 H       1  LIG1        0.0463
     65 H           6.6828    5.7556    5.6665 H       1  LIG1        0.0463
     66 O           5.5206    6.4572    8.5883 O.3     1  LIG1       -0.3937
     67 H           5.9112    7.0915    8.9319 H       1  LIG1        0.2095
@<TRIPOS>BOND
     1    41    40    1
     2    43    42    1
     3    52    49    1
     4    40    42   ar
     5    40    34   ar
     6    42    44   ar
     7    38    36    1
     8    35    34    1
     9    50    49    1
    10    49    51    1
    11    49    53    1
    12    54    53    1
    13    34    21   ar
    14    20    19    1
    15    36    37    1
    16    36    23    1
    17    36    39    1
    18    53    19    1
    19    53    55    1
    20    19    14    1
    21    44    45    1
    22    44    26   ar
    23    23    14   ar
    24    23    15   ar
    25    14     2   ar
    26    21    26   ar
    27    21    10    1
    28    16    15    1
    29    15     8   ar
    30     2     3    1
    31     2    11   ar
    32    26    33    1
    33     8    11   ar
    34     8    10    1
    35    11     1    1
    36    10     7    1
    37    10     9    1
    38     1     4    1
    39    58    56    1
    40     7     4   ar
    41     7     5   ar
    42     4    12   ar
    43    33     9   am
    44    33    18    2
    45    59    56    1
    46    56    57    1
    47    56    46    1
    48     9    24    1
    49     6     5    1
    50     5    17   ar
    51    12    13    1
    52    12    22   ar
    53    17    22   ar
    54    17    29    1
    55    22    27    1
    56    32    29    1
    57    65    63    1
    58    30    29    1
    59    28    27    1
    60    27    46    1
    61    29    31    1
    62    46    48    1
    63    46    47    1
    64    24    63    1
    65    24    25    1
    66    64    63    1
    67    63    60    1
    68    60    61    1
    69    60    62    1
    70    60    66    1
    71    66    67    1
