@<TRIPOS>MOLECULE
(<i>E</i>)-Methyl N'-(2-furylmethylene)hydrazinecarboxylate
 40 40 0 0 0
SMALL
GASTEIGER

@<TRIPOS>ATOM
      1 C          10.1850    4.0953   -0.1372 C.ar    1  LIG1       -0.0149
      2 H          10.5519    3.3132   -0.4817 H       1  LIG1        0.0656
      3 C           9.5445    5.1327   -0.8685 C.ar    1  LIG1       -0.0233
      4 H           9.3916    5.1484   -1.7852 H       1  LIG1        0.0649
      5 C           9.2047    6.0710    0.0000 C.ar    1  LIG1        0.0926
      6 H           8.7878    6.8726   -0.2219 H       1  LIG1        0.1029
      7 C          10.1517    4.4765    1.1584 C.ar    1  LIG1        0.1471
      8 C          10.6032    3.8148    2.3452 C.2     1  LIG1        0.0879
      9 H          10.9689    2.9625    2.2786 H       1  LIG1        0.0883
     10 C          10.8463    4.1171    5.7860 C.2     1  LIG1        0.4197
     11 C          11.1856    3.6585    8.0663 C.3     1  LIG1        0.0833
     12 H          11.4711    2.9476    8.6444 H       1  LIG1        0.0661
     13 H          10.2870    3.9140    8.2926 H       1  LIG1        0.0661
     14 H          11.7693    4.4124    8.1744 H       1  LIG1        0.0661
     15 C           7.3570    2.2203    2.0275 C.ar    2  LIG2        0.0926
     16 H           7.2316    3.0343    1.5955 H       2  LIG2        0.1029
     17 C           6.4152    1.3390    2.2479 C.ar    2  LIG2       -0.0233
     18 H           5.5229    1.4070    1.9969 H       2  LIG2        0.0649
     19 C           7.0134    0.2687    2.9369 C.ar    2  LIG2       -0.0149
     20 H           6.5863   -0.5016    3.2347 H       2  LIG2        0.0656
     21 C           8.3147    0.5656    3.0870 C.ar    2  LIG2        0.1471
     22 C           9.3988   -0.1047    3.7196 C.2     2  LIG2        0.0879
     23 H           9.2745   -0.9750    4.0230 H       2  LIG2        0.0883
     24 C          12.6947    0.2203    4.7598 C.2     2  LIG2        0.4197
     25 C          14.7855   -0.2312    5.7790 C.3     2  LIG2        0.0833
     26 H          15.2198   -0.9203    6.2870 H       2  LIG2        0.0661
     27 H          14.7647    0.5805    6.2928 H       2  LIG2        0.0661
     28 H          15.2705   -0.0820    4.9630 H       2  LIG2        0.0661
     29 N          10.5151    4.3648    3.4896 N.2     1  LIG1       -0.1820
     30 N          10.9411    3.5984    4.5429 N.am    1  LIG1       -0.1721
     31 H          11.2605    2.8101    4.4156 H       1  LIG1        0.1807
     32 N          10.5367    0.4508    3.8837 N.2     2  LIG2       -0.1820
     33 N          11.4792   -0.3062    4.5355 N.am    2  LIG2       -0.1721
     34 H          11.2939   -1.1047    4.7966 H       2  LIG2        0.1807
     35 O           9.5528    5.6952    1.2640 O.2     1  LIG1       -0.4620
     36 O          10.4825    5.2327    6.0608 O.2     1  LIG1       -0.2246
     37 O          11.2275    3.2070    6.6893 O.3     1  LIG1       -0.4526
     38 O           8.5530    1.7773    2.5227 O.2     2  LIG2       -0.4620
     39 O          13.0723    1.3008    4.3801 O.2     2  LIG2       -0.2246
     40 O          13.4268   -0.6422    5.4679 O.3     2  LIG2       -0.4526
@<TRIPOS>BOND
     1     4     3    1
     2     3     1   ar
     3     3     5   ar
     4     2     1    1
     5     6     5    1
     6     1     7   ar
     7     5    35   ar
     8     7    35   ar
     9     7     8    1
    10    16    15    1
    11    18    17    1
    12    15    17   ar
    13    15    38   ar
    14    17    19   ar
    15     9     8    1
    16     8    29    2
    17    38    21   ar
    18    19    21   ar
    19    19    20    1
    20    21    22    1
    21    29    30    1
    22    22    32    2
    23    22    23    1
    24    32    33    1
    25    39    24    2
    26    31    30    1
    27    33    24   am
    28    33    34    1
    29    30    10   am
    30    24    40    1
    31    28    25    1
    32    40    25    1
    33    25    26    1
    34    25    27    1
    35    10    36    2
    36    10    37    1
    37    37    11    1
    38    11    14    1
    39    11    13    1
    40    11    12    1
