@<TRIPOS>MOLECULE
(<i>E</i>)-3-(2,4-Dichlorophenyl)-1-(2-thienyl)prop-2-en-1-one
 25 26 0 0 0
SMALL
GASTEIGER

@<TRIPOS>ATOM
      1 CL         -1.4834    7.7994    1.6939 Cl      1  LIG1       -0.0829
      2 CL         -5.7682    6.1289    4.4284 Cl      1  LIG1       -0.0835
      3 S           4.2372    2.5172    1.9153 S.2     1  LIG1       -0.0934
      4 O           2.2750    4.6041    1.2055 O.2     1  LIG1       -0.2867
      5 C           4.5689    1.2372    2.9889 C.ar    1  LIG1       -0.0236
      6 H           5.3412    0.7033    2.9043 H       1  LIG1        0.0693
      7 C           3.6093    1.1088    3.9612 C.ar    1  LIG1       -0.0540
      8 H           3.6332    0.4619    4.6282 H       1  LIG1        0.0623
      9 C           2.5795    2.0724    3.8348 C.ar    1  LIG1       -0.0438
     10 H           1.8520    2.1364    4.4106 H       1  LIG1        0.0630
     11 C           2.7865    2.9096    2.7490 C.ar    1  LIG1        0.0588
     12 C           1.9356    3.9727    2.2071 C.2     1  LIG1        0.1926
     13 C           0.6383    4.2059    2.8816 C.2     1  LIG1       -0.0132
     14 H           0.4229    3.7258    3.6482 H       1  LIG1        0.0656
     15 C          -0.2243    5.1026    2.3930 C.2     1  LIG1       -0.0495
     16 H           0.0458    5.5985    1.6533 H       1  LIG1        0.0625
     17 C          -1.5594    5.3660    2.9297 C.ar    1  LIG1       -0.0065
     18 C          -2.2338    4.4251    3.7255 C.ar    1  LIG1       -0.0518
     19 H          -1.8044    3.6295    3.9421 H       1  LIG1        0.0624
     20 C          -3.5179    4.6451    4.1975 C.ar    1  LIG1       -0.0427
     21 H          -3.9460    4.0077    4.7219 H       1  LIG1        0.0632
     22 C          -4.1552    5.8381    3.8714 C.ar    1  LIG1        0.0424
     23 C          -3.5282    6.8093    3.1065 C.ar    1  LIG1       -0.0245
     24 H          -3.9591    7.6093    2.9061 H       1  LIG1        0.0647
     25 C          -2.2439    6.5594    2.6478 C.ar    1  LIG1        0.0495
@<TRIPOS>BOND
     1     4    12    2
     2    16    15    1
     3     1    25    1
     4     3    11   ar
     5     3     5   ar
     6    12    11    1
     7    12    13    1
     8    15    13    2
     9    15    17    1
    10    25    17   ar
    11    25    23   ar
    12    11     9   ar
    13    13    14    1
    14     6     5    1
    15    24    23    1
    16    17    18   ar
    17     5     7   ar
    18    23    22   ar
    19    18    19    1
    20    18    20   ar
    21     9     7   ar
    22     9    10    1
    23    22    20   ar
    24    22     2    1
    25     7     8    1
    26    20    21    1
