@<TRIPOS>MOLECULE
1-(4-Methoxyphenyl)-3-methyl-1H-1,2,4-triazol-5(4H)-one
 26 27 0 0 0
SMALL
GASTEIGER

@<TRIPOS>ATOM
      1 O           6.7221    7.0816   10.0247 O.2     1  LIG1       -0.2446
      2 O           5.2049    1.2098   12.6200 O.3     1  LIG1       -0.4951
      3 N           5.4777    7.4062    8.0672 N.ar    1  LIG1       -0.2933
      4 N           4.3926    5.4836    7.9710 N.ar    1  LIG1       -0.1493
      5 N           5.2258    5.5267    9.0950 N.ar    1  LIG1       -0.1804
      6 C           5.9078    6.7115    9.1656 C.ar    1  LIG1        0.3488
      7 C           4.5837    6.6311    7.3875 C.ar    1  LIG1        0.1288
      8 C           3.8947    7.0879    6.1581 C.3     1  LIG1       -0.0046
      9 H           3.2527    6.4277    5.8878 H       1  LIG1        0.0308
     10 H           4.5387    7.2135    5.4569 H       1  LIG1        0.0308
     11 H           3.4461    7.9188    6.3328 H       1  LIG1        0.0308
     12 C           5.2511    4.4158    9.9833 C.ar    1  LIG1        0.0709
     13 C           5.8638    4.5005   11.2392 C.ar    1  LIG1       -0.0326
     14 H           6.2949    5.2820   11.5023 H       1  LIG1        0.0640
     15 C           5.8199    3.4056   12.0855 C.ar    1  LIG1       -0.0179
     16 H           6.2181    3.4599   12.9248 H       1  LIG1        0.0655
     17 C           5.1883    2.2230   11.7013 C.ar    1  LIG1        0.1202
     18 C           4.6036    2.1402   10.4437 C.ar    1  LIG1       -0.0179
     19 H           4.1891    1.3527   10.1727 H       1  LIG1        0.0655
     20 C           4.6396    3.2382    9.5922 C.ar    1  LIG1       -0.0326
     21 H           4.2487    3.1807    8.7502 H       1  LIG1        0.0640
     22 C           4.4830    0.0234   12.2917 C.3     1  LIG1        0.0788
     23 H           3.5746    0.2504   12.0769 H       1  LIG1        0.0660
     24 H           4.4937   -0.5762   13.0422 H       1  LIG1        0.0660
     25 H           4.8937   -0.4023   11.5356 H       1  LIG1        0.0660
     26 H           5.7558    8.2743    7.8358 H       1  LIG1        0.1716
@<TRIPOS>BOND
     1    10     8    1
     2     9     8    1
     3     8    11    1
     4     8     7    1
     5     7     4   ar
     6     7     3   ar
     7    26     3    1
     8     4     5   ar
     9     3     6   ar
    10    21    20    1
    11     5     6   ar
    12     5    12    1
    13     6     1    2
    14    20    12   ar
    15    20    18   ar
    16    12    13   ar
    17    19    18    1
    18    18    17   ar
    19    13    14    1
    20    13    15   ar
    21    25    22    1
    22    17    15   ar
    23    17     2    1
    24    23    22    1
    25    15    16    1
    26    22     2    1
    27    22    24    1
