@<TRIPOS>MOLECULE
2-Nitro-<i>N</i>-(8-quinolyl)benzamide
 33 35 0 0 0
SMALL
GASTEIGER

@<TRIPOS>ATOM
      1 O           0.4905    2.8286    7.3336 O.2     1  LIG1       -0.2698
      2 O           1.3995    5.6157    7.8133 O.2     1  LIG1       -0.1261
      3 O           2.8796    5.1497    9.3324 O.2     1  LIG1       -0.1261
      4 N          -0.5422    4.6905    2.9429 N.ar    1  LIG1       -0.2531
      5 N           0.3193    3.5912    5.1899 N.am    1  LIG1       -0.2797
      6 H           0.8083    3.8902    4.5218 H       1  LIG1        0.1552
      7 N           2.4267    5.0570    8.1971 N.pl3   1  LIG1        0.0572
      8 C          -0.9513    5.2995    1.8460 C.ar    1  LIG1        0.0283
      9 H          -0.3032    5.7527    1.3191 H       1  LIG1        0.0830
     10 C          -2.2894    5.3183    1.4082 C.ar    1  LIG1       -0.0430
     11 H          -2.5292    5.7730    0.6090 H       1  LIG1        0.0633
     12 C          -3.2381    4.6725    2.1493 C.ar    1  LIG1       -0.0511
     13 H          -4.1426    4.6571    1.8609 H       1  LIG1        0.0625
     14 C          -3.7792    3.3900    4.2192 C.ar    1  LIG1       -0.0524
     15 H          -4.6992    3.3455    3.9892 H       1  LIG1        0.0624
     16 C          -3.3368    2.8389    5.3887 C.ar    1  LIG1       -0.0593
     17 H          -3.9637    2.4224    5.9689 H       1  LIG1        0.0618
     18 C          -1.9699    2.8714    5.7613 C.ar    1  LIG1       -0.0384
     19 H          -1.6874    2.4762    6.5778 H       1  LIG1        0.0637
     20 C          -1.0555    3.4770    4.9359 C.ar    1  LIG1        0.0599
     21 C          -1.4903    4.0707    3.7051 C.ar    1  LIG1        0.0921
     22 C          -2.8605    4.0273    3.3508 C.ar    1  LIG1        0.0022
     23 C           0.9946    3.3008    6.3296 C.2     1  LIG1        0.2505
     24 C           2.4796    3.5397    6.2432 C.ar    1  LIG1        0.0671
     25 C           3.1697    4.2597    7.2206 C.ar    1  LIG1        0.1383
     26 C           4.5507    4.3232    7.2599 C.ar    1  LIG1       -0.0307
     27 H           4.9945    4.8093    7.9454 H       1  LIG1        0.0640
     28 C           5.2743    3.6637    6.2793 C.ar    1  LIG1       -0.0596
     29 H           6.2240    3.6813    6.2960 H       1  LIG1        0.0618
     30 C           4.6134    2.9797    5.2755 C.ar    1  LIG1       -0.0609
     31 H           5.1137    2.5543    4.5899 H       1  LIG1        0.0618
     32 C           3.2264    2.9076    5.2579 C.ar    1  LIG1       -0.0474
     33 H           2.7864    2.4234    4.5682 H       1  LIG1        0.0626
@<TRIPOS>BOND
     1    11    10    1
     2     9     8    1
     3    10     8   ar
     4    10    12   ar
     5     8     4   ar
     6    13    12    1
     7    12    22   ar
     8     4    21   ar
     9    22    21   ar
    10    22    14   ar
    11    21    20   ar
    12    15    14    1
    13    14    16   ar
    14     6     5    1
    15    33    32    1
    16    31    30    1
    17    20     5    1
    18    20    18   ar
    19     5    23   am
    20    32    30   ar
    21    32    24   ar
    22    30    28   ar
    23    16    18   ar
    24    16    17    1
    25    18    19    1
    26    24    23    1
    27    24    25   ar
    28    28    29    1
    29    28    26   ar
    30    23     1    2
    31    25    26   ar
    32    25     7    1
    33    26    27    1
    34     2     7    2
    35     7     3    2
