@<TRIPOS>MOLECULE
<i>trans</i>-5,6-Diphenylperhydropyran-2,4-dione
 34 36 0 0 0
SMALL
GASTEIGER

@<TRIPOS>ATOM
      1 C           3.8554   -0.4897   11.8212 C.2     1  LIG1        0.3149
      2 C           5.1750    0.1103   12.1622 C.3     1  LIG1        0.1040
      3 H           5.5468    0.5103   11.3609 H       1  LIG1        0.0456
      4 H           5.7738   -0.6009   12.4375 H       1  LIG1        0.0456
      5 C           5.1453    1.1548   13.2462 C.2     1  LIG1        0.1552
      6 C           4.0040    1.0282   14.2409 C.3     1  LIG1        0.0842
      7 H           3.2789    1.6075   13.9255 H       1  LIG1        0.0466
      8 C           3.4834   -0.4156   14.2020 C.3     1  LIG1        0.1415
      9 H           4.2140   -1.0256   14.4351 H       1  LIG1        0.0796
     10 C           4.3654    1.4809   15.6377 C.ar    1  LIG1       -0.0333
     11 C           3.5994    2.4249   16.2925 C.ar    1  LIG1       -0.0578
     12 H           2.8639    2.8002   15.8656 H       1  LIG1        0.0621
     13 C           3.9193    2.8158   17.5791 C.ar    1  LIG1       -0.0615
     14 H           3.3942    3.4480   18.0151 H       1  LIG1        0.0618
     15 C           5.0085    2.2742   18.2164 C.ar    1  LIG1       -0.0617
     16 H           5.2278    2.5491   19.0769 H       1  LIG1        0.0618
     17 C           5.7739    1.3301   17.5836 C.ar    1  LIG1       -0.0615
     18 H           6.5093    0.9597   18.0170 H       1  LIG1        0.0618
     19 C           5.4513    0.9274   16.2990 C.ar    1  LIG1       -0.0578
     20 H           5.9677    0.2799   15.8749 H       1  LIG1        0.0621
     21 C           2.3274   -0.6572   15.1288 C.ar    1  LIG1       -0.0063
     22 C           1.1595    0.0708   15.0041 C.ar    1  LIG1       -0.0551
     23 H           1.0692    0.6865   14.3128 H       1  LIG1        0.0621
     24 C           0.1283   -0.1128   15.8995 C.ar    1  LIG1       -0.0614
     25 H          -0.6498    0.3893   15.8156 H       1  LIG1        0.0618
     26 C           0.2406   -1.0223   16.9027 C.ar    1  LIG1       -0.0617
     27 H          -0.4576   -1.1342   17.5055 H       1  LIG1        0.0618
     28 C           1.3764   -1.7721   17.0280 C.ar    1  LIG1       -0.0614
     29 H           1.4463   -2.3993   17.7112 H       1  LIG1        0.0618
     30 C           2.4312   -1.5952   16.1289 C.ar    1  LIG1       -0.0551
     31 H           3.2016   -2.1104   16.2066 H       1  LIG1        0.0621
     32 O           3.0157   -0.7232   12.8500 O.3     1  LIG1       -0.4552
     33 O           5.9718    2.0252   13.3044 O.2     1  LIG1       -0.2961
     34 O           3.5113   -0.7696   10.7096 O.2     1  LIG1       -0.2504
@<TRIPOS>BOND
     1    34     1    2
     2     3     2    1
     3     1     2    1
     4     1    32    1
     5     2     4    1
     6     2     5    1
     7    32     8    1
     8     5    33    2
     9     5     6    1
    10     7     6    1
    11     8     6    1
    12     8     9    1
    13     8    21    1
    14     6    10    1
    15    23    22    1
    16    22    21   ar
    17    22    24   ar
    18    21    30   ar
    19    10    11   ar
    20    10    19   ar
    21    25    24    1
    22    12    11    1
    23    20    19    1
    24    24    26   ar
    25    30    31    1
    26    30    28   ar
    27    11    13   ar
    28    19    17   ar
    29    26    28   ar
    30    26    27    1
    31    28    29    1
    32    13    14    1
    33    13    15   ar
    34    17    18    1
    35    17    15   ar
    36    15    16    1
