@<TRIPOS>MOLECULE
<i>N</i>'-[(E)-1-(4-Chlorophenyl)ethylidene]-2-[4-(2- methylpropyl)phenyl]propanohydrazide
 200 204 0 0 0
SMALL
GASTEIGER

@<TRIPOS>ATOM
      1 CL          2.3694   22.7244   16.5984 Cl      1  LIG1       -0.0835
      2 O          11.0351   18.0389   18.6868 O.2     1  LIG1       -0.2734
      3 N           8.0566   19.8341   18.4530 N.2     1  LIG1       -0.1845
      4 N           9.1936   19.2819   18.9865 N.am    1  LIG1       -0.2062
      5 C           6.0160   21.2065   17.1810 C.ar    1  LIG1       -0.0515
      6 H           6.7246   20.9123   16.6553 H       1  LIG1        0.0624
      7 C           4.8709   21.6881   16.5729 C.ar    1  LIG1       -0.0428
      8 H           4.8083   21.7195   15.6459 H       1  LIG1        0.0632
      9 C           3.8135   22.1248   17.3646 C.ar    1  LIG1        0.0410
     10 C           3.8953   22.0959   18.7440 C.ar    1  LIG1       -0.0428
     11 H           3.1845   22.3947   19.2633 H       1  LIG1        0.0632
     12 C           5.0521   21.6149   19.3460 C.ar    1  LIG1       -0.0515
     13 H           5.1136   21.5990   20.2748 H       1  LIG1        0.0624
     14 C           6.1244   21.1547   18.5750 C.ar    1  LIG1       -0.0024
     15 C           7.3468   20.5961   19.2105 C.2     1  LIG1        0.0634
     16 C          10.0069   18.5177   18.2123 C.2     1  LIG1        0.2393
     17 C           9.5920   18.2460   16.7704 C.3     1  LIG1        0.0594
     18 H           9.0196   18.9803   16.4623 H       1  LIG1        0.0441
     19 C           8.7928   16.9476   16.7211 C.ar    1  LIG1       -0.0357
     20 C           7.4948   16.9221   16.2090 C.ar    1  LIG1       -0.0576
     21 H           7.1128   17.7066   15.8872 H       1  LIG1        0.0621
     22 C           6.7632   15.7322   16.1748 C.ar    1  LIG1       -0.0583
     23 H           5.9040   15.7357   15.8189 H       1  LIG1        0.0620
     24 C           7.2938   14.5439   16.6640 C.ar    1  LIG1       -0.0471
     25 C           8.6060   14.5728   17.1586 C.ar    1  LIG1       -0.0583
     26 H           8.9916   13.7874   17.4737 H       1  LIG1        0.0620
     27 C           9.3432   15.7513   17.1892 C.ar    1  LIG1       -0.0576
     28 H          10.2105   15.7427   17.5240 H       1  LIG1        0.0621
     29 C           6.4660   13.2777   16.6881 C.3     1  LIG1       -0.0253
     30 H           7.0650   12.5142   16.6714 H       1  LIG1        0.0316
     31 H           5.9256   13.2435   15.8832 H       1  LIG1        0.0316
     32 C           5.5357   13.1499   17.9121 C.3     1  LIG1       -0.0427
     33 H           4.9722   13.9498   17.9563 H       1  LIG1        0.0299
     34 C           6.3188   13.0401   19.2171 C.3     1  LIG1       -0.0624
     35 H           5.7050   12.9814   19.9530 H       1  LIG1        0.0232
     36 H           6.8733   13.8159   19.3237 H       1  LIG1        0.0232
     37 H           6.8678   12.2536   19.1950 H       1  LIG1        0.0232
     38 C           4.6270   11.9296   17.7468 C.3     1  LIG1       -0.0624
     39 H           4.1259   12.0116   16.9328 H       1  LIG1        0.0232
     40 H           4.0227   11.8778   18.4912 H       1  LIG1        0.0232
     41 H           5.1641   11.1339   17.7130 H       1  LIG1        0.0232
     42 C           7.6834   20.9066   20.6456 C.3     1  LIG1       -0.0203
     43 H           8.5796   21.2477   20.6970 H       1  LIG1        0.0293
     44 H           7.6157   20.1061   21.1716 H       1  LIG1        0.0293
     45 H           7.0694   21.5630   20.9826 H       1  LIG1        0.0293
     46 C          10.8395   18.1894   15.8850 C.3     1  LIG1       -0.0500
     47 H          11.3330   19.0083   15.9737 H       1  LIG1        0.0240
     48 H          10.5763   18.0729   14.9683 H       1  LIG1        0.0240
     49 H          11.3907   17.4518   16.1567 H       1  LIG1        0.0240
     50 CL          9.3647   22.8595   16.6658 Cl      2  LIG2       -0.0835
     51 O          18.1139   18.2017   18.5638 O.2     2  LIG2       -0.2734
     52 N          15.0602   19.8930   18.3965 N.2     2  LIG2       -0.1845
     53 N          16.2228   19.3573   18.9082 N.am    2  LIG2       -0.2062
     54 C          12.9899   21.2713   17.1617 C.ar    2  LIG2       -0.0515
     55 H          13.6808   20.9666   16.6192 H       2  LIG2        0.0624
     56 C          11.8379   21.7729   16.5826 C.ar    2  LIG2       -0.0428
     57 H          11.7523   21.8008   15.6560 H       2  LIG2        0.0632
     58 C          10.8141   22.2332   17.3929 C.ar    2  LIG2        0.0410
     59 C          10.9258   22.2036   18.7733 C.ar    2  LIG2       -0.0428
     60 H          10.2347   22.5196   19.3096 H       2  LIG2        0.0632
     61 C          12.0864   21.6938   19.3472 C.ar    2  LIG2       -0.0515
     62 H          12.1660   21.6717   20.2728 H       2  LIG2        0.0624
     63 C          13.1331   21.2158   18.5596 C.ar    2  LIG2       -0.0024
     64 C          14.3647   20.6597   19.1664 C.2     2  LIG2        0.0634
     65 C          17.0504   18.6262   18.1136 C.2     2  LIG2        0.2393
     66 C          16.6061   18.3079   16.6899 C.3     2  LIG2        0.0594
     67 H          15.9545   18.9820   16.4040 H       2  LIG2        0.0441
     68 C          15.9388   16.9409   16.6767 C.ar    2  LIG2       -0.0357
     69 C          14.6580   16.7830   16.1563 C.ar    2  LIG2       -0.0576
     70 H          14.1941   17.5245   15.8390 H       2  LIG2        0.0621
     71 C          14.0627   15.5212   16.1050 C.ar    2  LIG2       -0.0583
     72 H          13.2130   15.4304   15.7364 H       2  LIG2        0.0620
     73 C          14.7195   14.3941   16.5978 C.ar    2  LIG2       -0.0471
     74 C          16.0040   14.5599   17.1150 C.ar    2  LIG2       -0.0583
     75 H          16.4629   13.8217   17.4456 H       2  LIG2        0.0620
     76 C          16.6118   15.8107   17.1438 C.ar    2  LIG2       -0.0576
     77 H          17.4755   15.8952   17.4778 H       2  LIG2        0.0621
     78 C          14.0733   13.0314   16.6129 C.3     2  LIG2       -0.0253
     79 H          14.7514   12.3598   16.4382 H       2  LIG2        0.0316
     80 H          13.4221   12.9857   15.8953 H       2  LIG2        0.0316
     81 C          13.3775   12.7001   17.9344 C.3     2  LIG2       -0.0427
     82 H          14.0057   12.8692   18.6661 H       2  LIG2        0.0299
     83 C          12.1548   13.5736   18.1409 C.3     2  LIG2       -0.0624
     84 H          12.4108   14.4982   18.0991 H       2  LIG2        0.0232
     85 H          11.7704   13.3873   18.9999 H       2  LIG2        0.0232
     86 H          11.5098   13.3889   17.4536 H       2  LIG2        0.0232
     87 C          12.9783   11.2256   17.9714 C.3     2  LIG2       -0.0624
     88 H          13.7609   10.6797   17.8658 H       2  LIG2        0.0232
     89 H          12.3612   11.0422   17.2586 H       2  LIG2        0.0232
     90 H          12.5612   11.0275   18.8129 H       2  LIG2        0.0232
     91 C          14.7287   21.0085   20.5824 C.3     2  LIG2       -0.0203
     92 H          15.6628   21.2248   20.6287 H       2  LIG2        0.0293
     93 H          14.5446   20.2589   21.1535 H       2  LIG2        0.0293
     94 H          14.2110   21.7637   20.8700 H       2  LIG2        0.0293
     95 C          17.8166   18.3528   15.7422 C.3     2  LIG2       -0.0500
     96 H          17.5304   18.1569   14.8476 H       2  LIG2        0.0240
     97 H          18.4652   17.7016   16.0199 H       2  LIG2        0.0240
     98 H          18.2100   19.2278   15.7666 H       2  LIG2        0.0240
     99 CL         13.0456    5.5670   13.5087 Cl      3  LIG3       -0.0835
    100 O          21.7385   10.3133   11.5779 O.2     3  LIG3       -0.2734
    101 N          18.7543    8.5030   11.7818 N.2     3  LIG3       -0.1845
    102 N          19.8974    9.0677   11.2626 N.am    3  LIG3       -0.2062
    103 C          16.7146    7.0693   13.0032 C.ar    3  LIG3       -0.0515
    104 H          17.4211    7.3384   13.5447 H       3  LIG3        0.0624
    105 C          15.5566    6.5688   13.5841 C.ar    3  LIG3       -0.0428
    106 H          15.4884    6.5020   14.5098 H       3  LIG3        0.0632
    107 C          14.5041    6.1693   12.7765 C.ar    3  LIG3        0.0410
    108 C          14.5942    6.2505   11.3973 C.ar    3  LIG3       -0.0428
    109 H          13.8837    5.9752   10.8623 H       3  LIG3        0.0632
    110 C          15.7596    6.7482   10.8186 C.ar    3  LIG3       -0.0515
    111 H          15.8271    6.7981    9.8931 H       3  LIG3        0.0624
    112 C          16.8299    7.1729   11.6121 C.ar    3  LIG3       -0.0024
    113 C          18.0558    7.7494   11.0028 C.2     3  LIG3        0.0634
    114 C          20.6956    9.8459   12.0432 C.2     3  LIG3        0.2393
    115 C          20.2444   10.1471   13.4628 C.3     3  LIG3        0.0594
    116 H          19.6642    9.4208   13.7699 H       3  LIG3        0.0441
    117 C          19.4454   11.4442   13.4592 C.ar    3  LIG3       -0.0357
    118 C          18.1263   11.4854   13.9233 C.ar    3  LIG3       -0.0576
    119 H          17.7234   10.7060   14.2323 H       3  LIG3        0.0621
    120 C          17.4116   12.6754   13.9279 C.ar    3  LIG3       -0.0583
    121 H          16.5408   12.6811   14.2525 H       3  LIG3        0.0620
    122 C          17.9709   13.8636   13.4566 C.ar    3  LIG3       -0.0471
    123 C          19.2957   13.8189   12.9985 C.ar    3  LIG3       -0.0583
    124 H          19.6980   14.5985   12.6881 H       3  LIG3        0.0620
    125 C          20.0208   12.6304   13.0007 C.ar    3  LIG3       -0.0576
    126 H          20.8992   12.6272   12.6941 H       3  LIG3        0.0621
    127 C          17.1621   15.1349   13.4101 C.3     3  LIG3       -0.0253
    128 H          17.7698   15.8902   13.4160 H       3  LIG3        0.0316
    129 H          16.6191   15.1877   14.2122 H       3  LIG3        0.0316
    130 C          16.2317   15.2525   12.1713 C.3     3  LIG3       -0.0427
    131 H          15.6618   14.4556   12.1351 H       3  LIG3        0.0299
    132 C          17.0326   15.3337   10.8765 C.3     3  LIG3       -0.0624
    133 H          16.4309   15.3819   10.1303 H       3  LIG3        0.0232
    134 H          17.5856   14.5528   10.7919 H       3  LIG3        0.0232
    135 H          17.5861   16.1177   10.8924 H       3  LIG3        0.0232
    136 C          15.3393   16.4746   12.3100 C.3     3  LIG3       -0.0624
    137 H          14.7435   16.5224   11.5580 H       3  LIG3        0.0232
    138 H          15.8830   17.2660   12.3402 H       3  LIG3        0.0232
    139 H          14.8280   16.4076   13.1204 H       3  LIG3        0.0232
    140 C          18.4084    7.4529    9.5736 C.3     3  LIG3       -0.0203
    141 H          19.3038    7.1076    9.5291 H       3  LIG3        0.0293
    142 H          18.3506    8.2594    9.0566 H       3  LIG3        0.0293
    143 H          17.7968    6.8019    9.2215 H       3  LIG3        0.0293
    144 C          21.4648   10.2277   14.3890 C.3     3  LIG3       -0.0500
    145 H          21.9654    9.4111   14.3309 H       3  LIG3        0.0240
    146 H          21.1718   10.3593   15.2940 H       3  LIG3        0.0240
    147 H          22.0219   10.9637   14.1218 H       3  LIG3        0.0240
    148 CL          5.8448    5.5496   13.5457 Cl      4  LIG4       -0.0835
    149 O          14.5820   10.1563   11.4933 O.2     4  LIG4       -0.2734
    150 N          11.5238    8.4832   11.6909 N.2     4  LIG4       -0.1845
    151 N          12.6833    9.0049   11.1673 N.am    4  LIG4       -0.2062
    152 C           9.4428    7.1749   12.9754 C.ar    4  LIG4       -0.0515
    153 H          10.1281    7.5160   13.5044 H       4  LIG4        0.0624
    154 C           8.2980    6.6874   13.5784 C.ar    4  LIG4       -0.0428
    155 H           8.2110    6.7048   14.5038 H       4  LIG4        0.0632
    156 C           7.2819    6.1731   12.7876 C.ar    4  LIG4        0.0410
    157 C           7.3916    6.1429   11.4100 C.ar    4  LIG4       -0.0428
    158 H           6.7015    5.8010   10.8884 H       4  LIG4        0.0632
    159 C           8.5543    6.6339   10.8152 C.ar    4  LIG4       -0.0515
    160 H           8.6386    6.6066    9.8890 H       4  LIG4        0.0624
    161 C           9.5886    7.1630   11.5797 C.ar    4  LIG4       -0.0024
    162 C          10.8226    7.6987   10.9451 C.2     4  LIG4        0.0634
    163 C          13.5256    9.7256   11.9573 C.2     4  LIG4        0.2393
    164 C          13.1128   10.0171   13.3965 C.3     4  LIG4        0.0594
    165 H          12.4663    9.3400   13.6854 H       4  LIG4        0.0441
    166 C          12.4511   11.3879   13.4560 C.ar    4  LIG4       -0.0357
    167 C          11.1999   11.5419   14.0437 C.ar    4  LIG4       -0.0576
    168 H          10.7556   10.7999   14.3852 H       4  LIG4        0.0621
    169 C          10.6053   12.8067   14.1230 C.ar    4  LIG4       -0.0583
    170 H           9.7775   12.8979   14.5360 H       4  LIG4        0.0620
    171 C          11.2357   13.9332   13.5929 C.ar    4  LIG4       -0.0471
    172 C          12.4944   13.7689   13.0180 C.ar    4  LIG4       -0.0583
    173 H          12.9359   14.5073   12.6659 H       4  LIG4        0.0620
    174 C          13.0996   12.5225   12.9623 C.ar    4  LIG4       -0.0576
    175 H          13.9489   12.4411   12.5915 H       4  LIG4        0.0621
    176 C          10.5858   15.2959   13.5893 C.3     4  LIG4       -0.0253
    177 H          11.2714   15.9712   13.7136 H       4  LIG4        0.0316
    178 H           9.9744   15.3543   14.3409 H       4  LIG4        0.0316
    179 C           9.8160   15.6022   12.2986 C.3     4  LIG4       -0.0427
    180 H          10.4068   15.4262   11.5359 H       4  LIG4        0.0299
    181 C           9.4155   17.0750   12.2674 C.3     4  LIG4       -0.0624
    182 H           8.9960   17.2748   11.4273 H       4  LIG4        0.0232
    183 H          10.1978   17.6220   12.3724 H       4  LIG4        0.0232
    184 H           8.8022   17.2551   12.9837 H       4  LIG4        0.0232
    185 C           8.5931   14.7187   12.1693 C.3     4  LIG4       -0.0624
    186 H           8.1829   14.8648   11.3147 H       4  LIG4        0.0232
    187 H           7.9676   14.9347   12.8650 H       4  LIG4        0.0232
    188 H           8.8539   13.7980   12.2477 H       4  LIG4        0.0232
    189 C          11.1706    7.3165    9.5366 C.3     4  LIG4       -0.0203
    190 H          12.1108    7.1280    9.4788 H       4  LIG4        0.0293
    191 H          10.9524    8.0408    8.9460 H       4  LIG4        0.0293
    192 H          10.6710    6.5360    9.2838 H       4  LIG4        0.0293
    193 C          14.3410    9.9514   14.3080 C.3     4  LIG4       -0.0500
    194 H          14.7427    9.0822   14.2424 H       4  LIG4        0.0240
    195 H          14.0746   10.1130   15.2156 H       4  LIG4        0.0240
    196 H          14.9769   10.6179   14.0373 H       4  LIG4        0.0240
    197 H           9.4218   19.3779   19.7962 H       1  LIG1        0.1772
    198 H          16.5285   19.5357   19.6836 H       2  LIG2        0.1772
    199 H          20.1254    8.9432   10.4581 H       3  LIG3        0.1772
    200 H          12.9596    8.8683   10.3696 H       4  LIG4        0.1772
@<TRIPOS>BOND
     1   191   189    1
     2   142   140    1
     3   143   140    1
     4   192   189    1
     5   190   189    1
     6   141   140    1
     7   189   162    1
     8   140   113    1
     9   160   159    1
    10   111   110    1
    11   133   132    1
    12   200   151    1
    13   199   102    1
    14   134   132    1
    15   159   157   ar
    16   159   161   ar
    17   110   108   ar
    18   110   112   ar
    19   109   108    1
    20   132   135    1
    21   132   130    1
    22   158   157    1
    23   162   161    1
    24   162   150    2
    25   113   112    1
    26   113   101    2
    27   151   150    1
    28   151   163   am
    29   102   101    1
    30   102   114   am
    31   186   185    1
    32   108   107   ar
    33   157   156   ar
    34   182   181    1
    35   149   163    2
    36   180   179    1
    37   137   136    1
    38   100   114    2
    39   161   152   ar
    40   112   103   ar
    41   163   164    1
    42   114   115    1
    43   131   130    1
    44   185   188    1
    45   185   179    1
    46   185   187    1
    47   130   136    1
    48   130   127    1
    49   181   179    1
    50   181   183    1
    51   181   184    1
    52   179   176    1
    53   136   138    1
    54   136   139    1
    55   175   174    1
    56   173   172    1
    57   124   123    1
    58   126   125    1
    59   107    99    1
    60   107   105   ar
    61   156   148    1
    62   156   154   ar
    63   174   172   ar
    64   174   166   ar
    65   152   153    1
    66   152   154   ar
    67   123   125   ar
    68   123   122   ar
    69   125   117   ar
    70   103   104    1
    71   103   105   ar
    72   172   171   ar
    73   164   166    1
    74   164   165    1
    75   164   193    1
    76   127   128    1
    77   127   122    1
    78   127   129    1
    79   166   167   ar
    80   122   120   ar
    81   117   115    1
    82   117   118   ar
    83   115   116    1
    84   115   144    1
    85   154   155    1
    86   105   106    1
    87   176   171    1
    88   176   177    1
    89   176   178    1
    90   171   169   ar
    91   118   120   ar
    92   118   119    1
    93   120   121    1
    94   196   193    1
    95   167   169   ar
    96   167   168    1
    97   147   144    1
    98   169   170    1
    99   194   193    1
   100   193   195    1
   101   145   144    1
   102   144   146    1
   103    96    95    1
   104    48    46    1
   105     8     7    1
   106    57    56    1
   107    72    71    1
   108    95    98    1
   109    95    97    1
   110    95    66    1
   111    23    22    1
   112    70    69    1
   113    31    29    1
   114    46    47    1
   115    46    49    1
   116    46    17    1
   117    21    20    1
   118    80    78    1
   119    71    69   ar
   120    71    73   ar
   121    69    68   ar
   122    22    20   ar
   123    22    24   ar
   124    20    19   ar
   125    67    66    1
   126    79    78    1
   127    18    17    1
   128     7     5   ar
   129     7     9   ar
   130    56    54   ar
   131    56    58   ar
   132    73    78    1
   133    73    74   ar
   134     1     9    1
   135    78    81    1
   136    55    54    1
   137     6     5    1
   138    24    29    1
   139    24    25   ar
   140    50    58    1
   141    30    29    1
   142    68    66    1
   143    68    76   ar
   144    29    32    1
   145    66    65    1
   146    19    17    1
   147    19    27   ar
   148    17    16    1
   149    39    38    1
   150    74    76   ar
   151    74    75    1
   152    76    77    1
   153    25    27   ar
   154    25    26    1
   155    54    63   ar
   156     5    14   ar
   157    27    28    1
   158    89    87    1
   159     9    10   ar
   160    58    59   ar
   161    86    83    1
   162    41    38    1
   163    38    32    1
   164    38    40    1
   165    88    87    1
   166    32    33    1
   167    32    34    1
   168    81    87    1
   169    81    83    1
   170    81    82    1
   171    87    90    1
   172    84    83    1
   173    65    51    2
   174    65    53   am
   175    83    85    1
   176    16     2    2
   177    16     4   am
   178    52    53    1
   179    52    64    2
   180     3     4    1
   181     3    15    2
   182    63    64    1
   183    63    61   ar
   184    14    15    1
   185    14    12   ar
   186    10    11    1
   187    10    12   ar
   188    59    60    1
   189    59    61   ar
   190    53   198    1
   191     4   197    1
   192    64    91    1
   193    37    34    1
   194    15    42    1
   195    34    36    1
   196    34    35    1
   197    12    13    1
   198    61    62    1
   199    91    92    1
   200    91    94    1
   201    91    93    1
   202    42    43    1
   203    42    45    1
   204    42    44    1
