@<TRIPOS>MOLECULE
2-Chloro-<i>N</i>-[4-(dimethylamino)benzylidene]aniline
 33 34 0 0 0
SMALL
GASTEIGER

@<TRIPOS>ATOM
      1 CL          9.4916   13.6433   -1.8470 Cl      1  LIG1       -0.0813
      2 N           7.6667   11.3743   -1.3571 N.2     1  LIG1       -0.2535
      3 N           6.7793    9.0890    4.5834 N.pl3   1  LIG1       -0.3360
      4 C           7.9141   10.2384   -0.8358 C.2     1  LIG1        0.0354
      5 H           8.3392    9.5917   -1.3513 H       1  LIG1        0.0836
      6 C           7.5569    9.9162    0.5352 C.ar    1  LIG1       -0.0068
      7 C           6.8311   10.7850    1.3331 C.ar    1  LIG1       -0.0514
      8 H           6.5234   11.5805    0.9636 H       1  LIG1        0.0624
      9 C           6.5489   10.5153    2.6465 C.ar    1  LIG1       -0.0401
     10 H           6.0411   11.1181    3.1395 H       1  LIG1        0.0636
     11 C           7.0166    9.3415    3.2575 C.ar    1  LIG1        0.0292
     12 C           7.7247    8.4435    2.4498 C.ar    1  LIG1       -0.0401
     13 H           8.0231    7.6394    2.8122 H       1  LIG1        0.0636
     14 C           7.9860    8.7315    1.1336 C.ar    1  LIG1       -0.0514
     15 H           8.4637    8.1165    0.6251 H       1  LIG1        0.0624
     16 C           6.0712   10.0309    5.4067 C.3     1  LIG1        0.0004
     17 H           6.5922   10.8326    5.4966 H       1  LIG1        0.0428
     18 H           5.9213    9.6490    6.2748 H       1  LIG1        0.0428
     19 H           5.2279   10.2420    4.9993 H       1  LIG1        0.0428
     20 C           7.4580    7.9896    5.2480 C.3     1  LIG1        0.0004
     21 H           7.2215    7.1623    4.8209 H       1  LIG1        0.0428
     22 H           7.1929    7.9603    6.1708 H       1  LIG1        0.0428
     23 H           8.4073    8.1189    5.1918 H       1  LIG1        0.0428
     24 C           7.9736   11.5940   -2.7083 C.ar    1  LIG1        0.0821
     25 C           8.7466   12.6958   -3.0861 C.ar    1  LIG1        0.0663
     26 C           8.9623   13.0118   -4.4065 C.ar    1  LIG1       -0.0413
     27 H           9.4817   13.7500   -4.6327 H       1  LIG1        0.0633
     28 C           8.4049   12.2260   -5.3955 C.ar    1  LIG1       -0.0603
     29 H           8.5356   12.4420   -6.2902 H       1  LIG1        0.0618
     30 C           7.6613   11.1340   -5.0569 C.ar    1  LIG1       -0.0597
     31 H           7.3057   10.5934   -5.7242 H       1  LIG1        0.0618
     32 C           7.4302   10.8216   -3.7225 C.ar    1  LIG1       -0.0349
     33 H           6.9045   10.0858   -3.5075 H       1  LIG1        0.0639
@<TRIPOS>BOND
     1    29    28    1
     2    31    30    1
     3    28    30   ar
     4    28    26   ar
     5    30    32   ar
     6    27    26    1
     7    26    25   ar
     8    32    33    1
     9    32    24   ar
    10    25    24   ar
    11    25     1    1
    12    24     2    1
    13     2     4    2
    14     5     4    1
    15     4     6    1
    16     6    14   ar
    17     6     7   ar
    18    15    14    1
    19     8     7    1
    20    14    12   ar
    21     7     9   ar
    22    12    13    1
    23    12    11   ar
    24     9    10    1
    25     9    11   ar
    26    11     3    1
    27     3    20    1
    28     3    16    1
    29    21    20    1
    30    19    16    1
    31    23    20    1
    32    20    22    1
    33    16    17    1
    34    16    18    1
