@<TRIPOS>MOLECULE
Benzyl <i>N'</i>-(2-chlorobenzylidene)hydrazinecarbodithioate
 66 68 0 0 0
SMALL
GASTEIGER

@<TRIPOS>ATOM
      1 CL          9.9369    4.2471    6.3882 Cl      1  LIG1       -0.0829
      2 S           6.2458    8.7814    2.3567 S.3     1  LIG1       -0.0966
      3 S           4.5277    9.0834    4.8281 S.2     1  LIG1       -0.0265
      4 N           6.7350    7.6888    4.6635 N.am    1  LIG1       -0.2249
      5 H           6.6273    7.5178    5.4995 H       1  LIG1        0.1755
      6 N           7.8060    7.1401    3.9953 N.2     1  LIG1       -0.1890
      7 C          10.4024    4.7094    4.7742 C.ar    1  LIG1        0.0496
      8 C           9.6710    5.6587    4.0826 C.ar    1  LIG1        0.0128
      9 C          10.1135    5.9837    2.7956 C.ar    1  LIG1       -0.0517
     10 H           9.6569    6.6253    2.3010 H       1  LIG1        0.0624
     11 C          11.2208    5.3653    2.2539 C.ar    1  LIG1       -0.0611
     12 H          11.4964    5.5810    1.3922 H       1  LIG1        0.0618
     13 C          11.9174    4.4289    2.9803 C.ar    1  LIG1       -0.0603
     14 H          12.6676    4.0218    2.6098 H       1  LIG1        0.0618
     15 C          11.5197    4.0958    4.2359 C.ar    1  LIG1       -0.0428
     16 H          11.9933    3.4647    4.7272 H       1  LIG1        0.0632
     17 C           8.5084    6.3193    4.6646 C.2     1  LIG1        0.0541
     18 H           8.2754    6.1367    5.5453 H       1  LIG1        0.0852
     19 C           5.8599    8.4834    4.0379 C.2     1  LIG1        0.1263
     20 C           4.8895    9.8830    1.8667 C.3     1  LIG1        0.0251
     21 H           4.0356    9.4750    2.0827 H       1  LIG1        0.0429
     22 H           4.9555   10.7239    2.3468 H       1  LIG1        0.0429
     23 C           4.9812   10.1276    0.3861 C.ar    1  LIG1       -0.0372
     24 C           5.8578   11.0451   -0.1377 C.ar    1  LIG1       -0.0578
     25 H           6.4161   11.5229    0.4353 H       1  LIG1        0.0621
     26 C           5.9294   11.2734   -1.4941 C.ar    1  LIG1       -0.0615
     27 H           6.5316   11.8979   -1.8287 H       1  LIG1        0.0618
     28 C           5.1153   10.5846   -2.3480 C.ar    1  LIG1       -0.0617
     29 H           5.1613   10.7390   -3.2634 H       1  LIG1        0.0618
     30 C           4.2428    9.6756   -1.8522 C.ar    1  LIG1       -0.0615
     31 H           3.6832    9.2098   -2.4308 H       1  LIG1        0.0618
     32 C           4.1771    9.4347   -0.4947 C.ar    1  LIG1       -0.0578
     33 H           3.5834    8.7973   -0.1690 H       1  LIG1        0.0621
     34 CL          0.7969   11.1442    6.2260 Cl      2  LIG2       -0.0829
     35 S           4.9861    7.2696   10.4524 S.3     2  LIG2       -0.0966
     36 S           6.4010    6.5124    7.8905 S.2     2  LIG2       -0.0265
     37 N           4.3594    8.1332    8.0936 N.am    2  LIG2       -0.2249
     38 H           4.4038    8.2196    7.2397 H       2  LIG2        0.1755
     39 N           3.3962    8.8219    8.7953 N.2     2  LIG2       -0.1890
     40 C           0.6676   11.0857    7.9582 C.ar    2  LIG2        0.0496
     41 C           1.5724   10.3490    8.7136 C.ar    2  LIG2        0.0128
     42 C           1.3977   10.3514   10.1002 C.ar    2  LIG2       -0.0517
     43 H           1.9823    9.8668   10.6363 H       2  LIG2        0.0624
     44 C           0.3735   11.0616   10.6855 C.ar    2  LIG2       -0.0611
     45 H           0.2779   11.0632   11.6111 H       2  LIG2        0.0618
     46 C          -0.5036   11.7670    9.9033 C.ar    2  LIG2       -0.0603
     47 H          -1.1995   12.2389   10.3017 H       2  LIG2        0.0618
     48 C          -0.3668   11.7818    8.5435 C.ar    2  LIG2       -0.0428
     49 H          -0.9670   12.2594    8.0175 H       2  LIG2        0.0632
     50 C           2.6439    9.5838    8.0947 C.2     2  LIG2        0.0541
     51 H           2.7842    9.6488    7.1770 H       2  LIG2        0.0852
     52 C           5.2256    7.3339    8.7192 C.2     2  LIG2        0.1263
     53 C           6.2385    6.0540   10.9329 C.3     2  LIG2        0.0251
     54 H           6.1256    5.2398   10.4170 H       2  LIG2        0.0429
     55 H           7.1256    6.4058   10.7594 H       2  LIG2        0.0429
     56 C           6.0785    5.7585   12.4068 C.ar    2  LIG2       -0.0372
     57 C           7.0320    6.1898   13.3043 C.ar    2  LIG2       -0.0578
     58 H           7.7566    6.6892   13.0044 H       2  LIG2        0.0621
     59 C           6.9168    5.8841   14.6495 C.ar    2  LIG2       -0.0615
     60 H           7.5695    6.1721   15.2449 H       2  LIG2        0.0618
     61 C           5.8540    5.1624   15.1095 C.ar    2  LIG2       -0.0617
     62 H           5.7820    4.9618   16.0149 H       2  LIG2        0.0618
     63 C           4.8905    4.7313   14.2254 C.ar    2  LIG2       -0.0615
     64 H           4.1633    4.2371   14.5298 H       2  LIG2        0.0618
     65 C           5.0093    5.0383   12.8835 C.ar    2  LIG2       -0.0578
     66 H           4.3528    4.7511   12.2904 H       2  LIG2        0.0621
@<TRIPOS>BOND
     1    29    28    1
     2    31    30    1
     3    28    30   ar
     4    28    26   ar
     5    30    32   ar
     6    27    26    1
     7    26    24   ar
     8    32    33    1
     9    32    23   ar
    10    24    23   ar
    11    24    25    1
    12    23    20    1
    13    12    11    1
    14    20    21    1
    15    20    22    1
    16    20     2    1
    17    11     9   ar
    18    11    13   ar
    19    10     9    1
    20     2    19    1
    21    14    13    1
    22     9     8   ar
    23    13    15   ar
    24     6     4    1
    25     6    17    2
    26    19     4    1
    27    19     3    2
    28     8    17    1
    29     8     7   ar
    30    15    16    1
    31    15     7   ar
    32     4     5    1
    33    17    18    1
    34     7     1    1
    35    34    40    1
    36    51    50    1
    37    38    37    1
    38    36    52    2
    39    40    48   ar
    40    40    41   ar
    41    49    48    1
    42    37    52    1
    43    37    39    1
    44    50    41    1
    45    50    39    2
    46    48    46   ar
    47    41    42   ar
    48    52    35    1
    49    46    47    1
    50    46    44   ar
    51    42    43    1
    52    42    44   ar
    53    54    53    1
    54    35    53    1
    55    44    45    1
    56    55    53    1
    57    53    56    1
    58    66    65    1
    59    56    65   ar
    60    56    57   ar
    61    65    63   ar
    62    58    57    1
    63    57    59   ar
    64    63    64    1
    65    63    61   ar
    66    59    61   ar
    67    59    60    1
    68    61    62    1
