@<TRIPOS>MOLECULE
4'-Chlorobiphenyl-4-yl 2,2,2-trichloroethyl sulfate
 66 68 0 0 0
SMALL
GASTEIGER

@<TRIPOS>ATOM
      1 S           3.6569   15.8985    2.5321 S.O2    1  LIG1        0.2539
      2 O           4.7681   16.8509    3.0954 O.3     1  LIG1       -0.3249
      3 O           3.3948   14.9052    3.7208 O.3     1  LIG1       -0.2026
      4 O           2.4413   16.5893    2.3691 O.2     1  LIG1       -0.1075
      5 O           4.2740   15.2073    1.4627 O.2     1  LIG1       -0.1075
      6 CL          3.1133   24.6425    9.5051 Cl      1  LIG1       -0.0835
      7 CL          3.2846   11.8598    3.2285 Cl      1  LIG1       -0.0808
      8 CL          5.3749   11.8601    5.2302 Cl      1  LIG1       -0.0808
      9 CL          2.7551   12.9529    5.8482 Cl      1  LIG1       -0.0808
     10 C           3.9485   20.0404    5.7058 C.ar    1  LIG1       -0.0177
     11 C           4.4233   20.2487    4.4051 C.ar    1  LIG1       -0.0505
     12 H           4.6005   21.1336    4.1094 H       1  LIG1        0.0625
     13 C           4.6390   19.1879    3.5452 C.ar    1  LIG1       -0.0164
     14 H           4.9395   19.3444    2.6580 H       1  LIG1        0.0655
     15 C           4.4137   17.9101    3.9848 C.ar    1  LIG1        0.1588
     16 C           3.9841   17.6452    5.2617 C.ar    1  LIG1       -0.0164
     17 H           3.8541   16.7531    5.5574 H       1  LIG1        0.0655
     18 C           3.7453   18.7232    6.1137 C.ar    1  LIG1       -0.0505
     19 H           3.4352   18.5543    6.9951 H       1  LIG1        0.0625
     20 C           4.5321   14.1003    4.1536 C.3     1  LIG1        0.1263
     21 H           5.0002   14.5431    4.9048 H       1  LIG1        0.0627
     22 H           5.1725   13.9831    3.4081 H       1  LIG1        0.0627
     23 C           3.9832   12.7489    4.5977 C.3     1  LIG1        0.2159
     24 C           3.7068   21.1757    6.6450 C.ar    1  LIG1       -0.0178
     25 C           3.6423   20.9625    8.0330 C.ar    1  LIG1       -0.0527
     26 H           3.7386   20.0831    8.3763 H       1  LIG1        0.0624
     27 C           3.4410   22.0200    8.9076 C.ar    1  LIG1       -0.0428
     28 H           3.3890   21.8692    9.8446 H       1  LIG1        0.0632
     29 C           3.3167   23.2890    8.4001 C.ar    1  LIG1        0.0410
     30 C           3.3485   23.5327    7.0303 C.ar    1  LIG1       -0.0428
     31 H           3.2272   24.4121    6.6904 H       1  LIG1        0.0632
     32 C           3.5594   22.4732    6.1816 C.ar    1  LIG1       -0.0527
     33 H           3.6057   22.6351    5.2469 H       1  LIG1        0.0624
     34 S           3.4815    0.8107    2.2976 S.O2    2  LIG2        0.2539
     35 O           4.5504    1.8494    1.8094 O.3     2  LIG2       -0.3249
     36 O           3.3042   -0.1338    1.0548 O.3     2  LIG2       -0.2026
     37 O           2.2246    1.4395    2.4677 O.2     2  LIG2       -0.1075
     38 O           4.1190    0.1066    3.3491 O.2     2  LIG2       -0.1075
     39 CL          2.8792    9.4113   -4.8176 Cl      2  LIG2       -0.0835
     40 CL          2.9040   -2.0779   -1.2089 Cl      2  LIG2       -0.0808
     41 CL          5.3858   -3.2274   -0.2481 Cl      2  LIG2       -0.0808
     42 CL          3.0356   -3.1423    1.4574 Cl      2  LIG2       -0.0808
     43 C           3.6711    4.8967   -0.9121 C.ar    2  LIG2       -0.0177
     44 C           4.0506    3.6400   -1.3641 C.ar    2  LIG2       -0.0505
     45 H           4.1344    3.4784   -2.2966 H       2  LIG2        0.0625
     46 C           4.3058    2.6192   -0.4634 C.ar    2  LIG2       -0.0164
     47 H           4.5697    1.7589   -0.7704 H       2  LIG2        0.0655
     48 C           4.1748    2.8641    0.8667 C.ar    2  LIG2        0.1588
     49 C           3.7520    4.0738    1.3709 C.ar    2  LIG2       -0.0164
     50 H           3.6480    4.2079    2.3057 H       2  LIG2        0.0655
     51 C           3.4834    5.0940    0.4600 C.ar    2  LIG2       -0.0505
     52 H           3.1694    5.9335    0.7750 H       2  LIG2        0.0625
     53 C           4.4560   -0.9645    0.6979 C.3     2  LIG2        0.1263
     54 H           5.0377   -1.0959    1.4876 H       2  LIG2        0.0627
     55 H           4.9857   -0.5237   -0.0125 H       2  LIG2        0.0627
     56 C           3.9456   -2.2877    0.2107 C.3     2  LIG2        0.2159
     57 C           3.4747    6.0195   -1.8774 C.ar    2  LIG2       -0.0178
     58 C           2.3903    6.9219   -1.7595 C.ar    2  LIG2       -0.0527
     59 H           1.7662    6.8114   -1.0514 H       2  LIG2        0.0624
     60 C           2.2218    7.9545   -2.6467 C.ar    2  LIG2       -0.0428
     61 H           1.4956    8.5582   -2.5436 H       2  LIG2        0.0632
     62 C           3.1087    8.1144   -3.6845 C.ar    2  LIG2        0.0410
     63 C           4.1893    7.2480   -3.8386 C.ar    2  LIG2       -0.0428
     64 H           4.8075    7.3715   -4.5501 H       2  LIG2        0.0632
     65 C           4.3482    6.2111   -2.9447 C.ar    2  LIG2       -0.0527
     66 H           5.0753    5.6096   -3.0591 H       2  LIG2        0.0624
@<TRIPOS>BOND
     1    39    62    1
     2    64    63    1
     3    63    62   ar
     4    63    65   ar
     5    62    60   ar
     6    66    65    1
     7    65    57   ar
     8    60    61    1
     9    60    58   ar
    10    45    44    1
    11    57    58   ar
    12    57    43    1
    13    58    59    1
    14    44    43   ar
    15    44    46   ar
    16    40    56    1
    17    43    51   ar
    18    47    46    1
    19    46    48   ar
    20    41    56    1
    21    55    53    1
    22    56    53    1
    23    56    42    1
    24    51    52    1
    25    51    49   ar
    26    53    36    1
    27    53    54    1
    28    48    49   ar
    29    48    35    1
    30    36    34    1
    31    49    50    1
    32     5     1    2
    33    35    34    1
    34    34    37    2
    35    34    38    2
    36     4     1    2
    37     1     2    1
    38     1     3    1
    39    14    13    1
    40     2    15    1
    41     7    23    1
    42    22    20    1
    43    13    15   ar
    44    13    11   ar
    45     3    20    1
    46    15    16   ar
    47    12    11    1
    48    20    23    1
    49    20    21    1
    50    11    10   ar
    51    23     8    1
    52    23     9    1
    53    33    32    1
    54    16    17    1
    55    16    18   ar
    56    10    18   ar
    57    10    24    1
    58    18    19    1
    59    32    24   ar
    60    32    30   ar
    61    24    25   ar
    62    31    30    1
    63    30    29   ar
    64    25    26    1
    65    25    27   ar
    66    29    27   ar
    67    29     6    1
    68    27    28    1
