@<TRIPOS>MOLECULE
4-Acetyl-3,3-diethyl-5-hydroxy-2-morpholino-2,3-dihydro-1-benzofuran
 48 50 0 0 0
SMALL
GASTEIGER

@<TRIPOS>ATOM
      1 O           6.2469   15.7044    7.0156 O.3     1  LIG1       -0.4724
      2 C           5.7796   15.2977    8.3449 C.3     1  LIG1        0.1640
      3 H           6.5544   14.8781    8.8184 H       1  LIG1        0.0920
      4 N           4.7428   14.3035    8.2507 N.3     1  LIG1       -0.2628
      5 C           5.2867   12.9664    7.9814 C.3     1  LIG1        0.0257
      6 H           5.9975   12.7568    8.6393 H       1  LIG1        0.0450
      7 H           5.6880   12.9452    7.0767 H       1  LIG1        0.0450
      8 C           4.1956   11.9399    8.0738 C.3     1  LIG1        0.0605
      9 H           4.5720   11.0415    7.8961 H       1  LIG1        0.0572
     10 H           3.8208   11.9390    8.9908 H       1  LIG1        0.0572
     11 O           3.1524   12.2173    7.1306 O.3     1  LIG1       -0.3772
     12 C           2.6146   13.5235    7.3632 C.3     1  LIG1        0.0605
     13 H           2.1985   13.5513    8.2610 H       1  LIG1        0.0572
     14 H           1.9108   13.7125    6.6939 H       1  LIG1        0.0572
     15 C           3.6859   14.5836    7.2750 C.3     1  LIG1        0.0257
     16 H           4.0689   14.5964    6.3625 H       1  LIG1        0.0450
     17 H           3.2912   15.4725    7.4573 H       1  LIG1        0.0450
     18 C           5.4343   16.6271    9.1030 C.3     1  LIG1        0.0503
     19 C           4.1728   16.5376    9.9830 C.3     1  LIG1       -0.0414
     20 H           3.9802   17.4403   10.3408 H       1  LIG1        0.0273
     21 H           3.4102   16.2787    9.4072 H       1  LIG1        0.0273
     22 C           4.2384   15.5609   11.1552 C.3     1  LIG1       -0.0643
     23 H           4.4772   14.6702   10.8244 H       1  LIG1        0.0230
     24 H           3.3651   15.5230   11.5967 H       1  LIG1        0.0230
     25 H           4.9158   15.8649   11.7960 H       1  LIG1        0.0230
     26 C           6.6508   17.0329    9.9739 C.3     1  LIG1       -0.0414
     27 H           6.4323   17.8813   10.4348 H       1  LIG1        0.0273
     28 H           6.7760   16.3408   10.6721 H       1  LIG1        0.0273
     29 C           7.9690   17.2154    9.2442 C.3     1  LIG1       -0.0643
     30 H           8.2303   16.3700    8.8252 H       1  LIG1        0.0230
     31 H           8.6604   17.4908    9.8818 H       1  LIG1        0.0230
     32 H           7.8679   17.9046    8.5543 H       1  LIG1        0.0230
     33 C           5.2730   17.5868    7.9330 C.ar    1  LIG1        0.0193
     34 C           4.7663   18.8860    7.8567 C.ar    1  LIG1        0.0658
     35 C           4.3159   19.6684    9.0647 C.2     1  LIG1        0.1640
     36 O           5.1166   19.9915    9.9201 O.2     1  LIG1       -0.2922
     37 C           2.8689   20.0317    9.1583 C.3     1  LIG1       -0.0013
     38 H           2.7040   20.5018   10.0027 H       1  LIG1        0.0309
     39 H           2.3253   19.2177    9.1274 H       1  LIG1        0.0309
     40 H           2.6294   20.6144    8.4065 H       1  LIG1        0.0309
     41 C           4.7433   19.5148    6.5996 C.ar    1  LIG1        0.1278
     42 O           4.2253   20.7875    6.5479 O.3     1  LIG1       -0.5061
     43 C           5.2529   18.8811    5.4823 C.ar    1  LIG1       -0.0160
     44 H           5.2440   19.3304    4.6454 H       1  LIG1        0.0655
     45 C           5.7759   17.6008    5.5635 C.ar    1  LIG1       -0.0161
     46 H           6.1321   17.1664    4.7976 H       1  LIG1        0.0655
     47 C           5.7629   16.9782    6.7919 C.ar    1  LIG1        0.1276
     48 H           4.3706   21.1331    5.7290 H       1  LIG1        0.2922
@<TRIPOS>BOND
     1    44    43    1
     2    46    45    1
     3    43    45   ar
     4    43    41   ar
     5    45    47   ar
     6    48    42    1
     7    16    15    1
     8    42    41    1
     9    41    34   ar
    10    14    12    1
    11    47     1    1
    12    47    33   ar
    13     1     2    1
    14     7     5    1
    15    11    12    1
    16    11     8    1
    17    15    12    1
    18    15    17    1
    19    15     4    1
    20    12    13    1
    21    34    33   ar
    22    34    35    1
    23     9     8    1
    24    33    18    1
    25     5     8    1
    26     5     4    1
    27     5     6    1
    28     8    10    1
    29     4     2    1
    30     2     3    1
    31     2    18    1
    32    40    37    1
    33    32    29    1
    34    30    29    1
    35    35    37    1
    36    35    36    2
    37    18    26    1
    38    18    19    1
    39    39    37    1
    40    37    38    1
    41    29    31    1
    42    29    26    1
    43    21    19    1
    44    26    27    1
    45    26    28    1
    46    19    20    1
    47    19    22    1
    48    23    22    1
    49    22    24    1
    50    22    25    1
