@<TRIPOS>MOLECULE
<i>N</i>-(2-Formamidoethyl)formamide
 8 7 0 0 0
SMALL
GASTEIGER

@<TRIPOS>ATOM
      1 C           2.2976    3.3733    6.4502 C.2     1  LIG1        0.2000
      2 H           1.4081    3.1649    6.6238 H       1  LIG1        0.1251
      3 C           3.9867    3.9808    4.8223 C.3     1  LIG1        0.0269
      4 H           4.4458    4.4425    5.5413 H       1  LIG1        0.0477
      5 H           3.9866    4.5599    4.0442 H       1  LIG1        0.0477
      6 N           2.6205    3.7062    5.2196 N.am    1  LIG1       -0.3164
      7 H           2.0260    3.6319    4.6255 H       1  LIG1        0.1485
      8 O           3.0933    3.3186    7.3884 O.2     1  LIG1       -0.2795
@<TRIPOS>BOND
     1     5     3    1
     2     7     6    1
     3     3     6    1
     4     3     4    1
     5     6     1   am
     6     1     2    1
     7     1     8    2
