@<TRIPOS>MOLECULE
[4-(Methylsulfonyl)phenyl]acetic acid
 24 24 0 0 0
SMALL
GASTEIGER

@<TRIPOS>ATOM
      1 S           4.3750    3.2092   10.4540 S.O2    1  LIG1       -0.0059
      2 O           5.2404    2.8415    9.3709 O.2     1  LIG1       -0.1696
      3 O           3.8031    2.1664   11.2637 O.2     1  LIG1       -0.1696
      4 O          -0.2880    4.7171    6.2716 O.2     1  LIG1       -0.2507
      5 O          -1.7426    6.3779    6.2747 O.3     1  LIG1       -0.4804
      6 H          -1.9875    6.0135    5.5823 H       1  LIG1        0.2951
      7 C           5.2309    4.3099   11.5150 C.3     1  LIG1        0.0596
      8 H           6.0211    3.8809   11.8498 H       1  LIG1        0.0468
      9 H           4.6632    4.5530   12.2496 H       1  LIG1        0.0468
     10 H           5.4765    5.0984   11.0256 H       1  LIG1        0.0468
     11 C           3.0404    4.1548    9.7706 C.ar    1  LIG1        0.0879
     12 C           3.2902    5.0009    8.7042 C.ar    1  LIG1       -0.0366
     13 H           4.1514    5.0834    8.3632 H       1  LIG1        0.0637
     14 C           2.2525    5.7202    8.1530 C.ar    1  LIG1       -0.0563
     15 H           2.4196    6.2944    7.4400 H       1  LIG1        0.0621
     16 C           0.9555    5.5975    8.6506 C.ar    1  LIG1       -0.0367
     17 C           0.7344    4.7573    9.7232 C.ar    1  LIG1       -0.0563
     18 H          -0.1246    4.6793   10.0715 H       1  LIG1        0.0621
     19 C           1.7615    4.0321   10.2889 C.ar    1  LIG1       -0.0366
     20 H           1.5973    3.4673   11.0091 H       1  LIG1        0.0637
     21 C          -0.1839    6.3590    8.0170 C.3     1  LIG1        0.0699
     22 H          -0.9020    6.4401    8.6651 H       1  LIG1        0.0426
     23 H           0.1216    7.2548    7.8037 H       1  LIG1        0.0426
     24 C          -0.7288    5.7292    6.7734 C.2     1  LIG1        0.3091
@<TRIPOS>BOND
     1     6     5    1
     2     4    24    2
     3     5    24    1
     4    24    21    1
     5    15    14    1
     6    23    21    1
     7    21    16    1
     8    21    22    1
     9    14    16   ar
    10    14    12   ar
    11    13    12    1
    12    16    17   ar
    13    12    11   ar
    14     2     1    2
    15    17    18    1
    16    17    19   ar
    17    11    19   ar
    18    11     1    1
    19    19    20    1
    20     1     3    2
    21     1     7    1
    22    10     7    1
    23     7     8    1
    24     7     9    1
