@<TRIPOS>MOLECULE
2-Iodo-<i>N</i>-(6-methyl-2-pyridyl)benzamide
 56 58 0 0 0
SMALL
GASTEIGER

@<TRIPOS>ATOM
      1 I           3.3504    6.7072    0.7518 I       1  LIG1       -0.0430
      2 O           5.8182    3.7797    0.2067 O.2     1  LIG1       -0.2698
      3 N           5.2554    4.0054    2.4168 N.am    1  LIG1       -0.2663
      4 N           3.8841    2.6469    3.6733 N.ar    1  LIG1       -0.2370
      5 C           5.3834    6.9790    1.1874 C.ar    1  LIG1        0.0255
      6 C           5.9001    8.2731    1.2840 C.ar    1  LIG1       -0.0479
      7 H           5.3299    9.0066    1.2473 H       1  LIG1        0.0628
      8 C           7.2641    8.4599    1.4342 C.ar    1  LIG1       -0.0607
      9 H           7.6058    9.3209    1.5161 H       1  LIG1        0.0618
     10 C           8.1231    7.3739    1.4626 C.ar    1  LIG1       -0.0610
     11 H           9.0407    7.5067    1.5336 H       1  LIG1        0.0618
     12 C           7.6105    6.0868    1.3852 C.ar    1  LIG1       -0.0486
     13 H           8.1882    5.3584    1.4100 H       1  LIG1        0.0625
     14 C           6.2367    5.8753    1.2708 C.ar    1  LIG1        0.0501
     15 C           5.7409    4.4570    1.2257 C.2     1  LIG1        0.2503
     16 C           4.7833    2.6983    2.6785 C.ar    1  LIG1        0.1254
     17 C           5.2572    1.5818    2.0058 C.ar    1  LIG1       -0.0215
     18 H           5.8809    1.6589    1.3212 H       1  LIG1        0.0652
     19 C           4.7636    0.3486    2.3945 C.ar    1  LIG1       -0.0568
     20 H           5.0539   -0.4254    1.9678 H       1  LIG1        0.0619
     21 C           3.8406    0.2685    3.4164 C.ar    1  LIG1       -0.0405
     22 H           3.5063   -0.5565    3.6842 H       1  LIG1        0.0635
     23 C           3.4139    1.4358    4.0409 C.ar    1  LIG1        0.0403
     24 C           2.4047    1.3940    5.1389 C.3     1  LIG1       -0.0223
     25 H           2.4872    2.1835    5.6802 H       1  LIG1        0.0292
     26 H           2.5549    0.6168    5.6815 H       1  LIG1        0.0292
     27 H           1.5230    1.3554    4.7621 H       1  LIG1        0.0292
     28 I           5.5581    3.0404    6.7026 I       2  LIG2       -0.0430
     29 O           4.9921    0.7705    9.6432 O.2     2  LIG2       -0.2698
     30 N           3.0813    1.9586    9.2365 N.am    2  LIG2       -0.2663
     31 N           0.9129    1.2586    8.9632 N.ar    2  LIG2       -0.2370
     32 C           5.8355    3.7139    8.6752 C.ar    2  LIG2        0.0255
     33 C           6.6540    4.8166    8.8849 C.ar    2  LIG2       -0.0479
     34 H           7.1136    5.2025    8.1748 H       2  LIG2        0.0628
     35 C           6.7789    5.3361   10.1673 C.ar    2  LIG2       -0.0607
     36 H           7.3363    6.0653   10.3186 H       2  LIG2        0.0618
     37 C           6.0773    4.7751   11.2205 C.ar    2  LIG2       -0.0610
     38 H           6.1510    5.1380   12.0740 H       2  LIG2        0.0618
     39 C           5.2614    3.6648   11.0045 C.ar    2  LIG2       -0.0486
     40 H           4.7906    3.2884   11.7125 H       2  LIG2        0.0625
     41 C           5.1514    3.1206    9.7272 C.ar    2  LIG2        0.0501
     42 C           4.3980    1.8307    9.5272 C.2     2  LIG2        0.2503
     43 C           2.2030    0.9104    8.9162 C.ar    2  LIG2        0.1254
     44 C           2.6457   -0.3582    8.5481 C.ar    2  LIG2       -0.0215
     45 H           3.5513   -0.5652    8.5162 H       2  LIG2        0.0652
     46 C           1.6753   -1.3004    8.2314 C.ar    2  LIG2       -0.0568
     47 H           1.9257   -2.1639    7.9947 H       2  LIG2        0.0619
     48 C           0.3388   -0.9550    8.2674 C.ar    2  LIG2       -0.0405
     49 H          -0.3149   -1.5833    8.0619 H       2  LIG2        0.0635
     50 C          -0.0209    0.3466    8.6149 C.ar    2  LIG2        0.0403
     51 C          -1.4415    0.8047    8.5981 C.3     2  LIG2       -0.0223
     52 H          -1.5549    1.5199    9.2286 H       2  LIG2        0.0292
     53 H          -2.0166    0.0740    8.8361 H       2  LIG2        0.0292
     54 H          -1.6670    1.1164    7.7178 H       2  LIG2        0.0292
     55 H           5.1471    4.5372    3.0498 H       1  LIG1        0.1566
     56 H           2.7100    2.7133    9.2635 H       2  LIG2        0.1566
@<TRIPOS>BOND
     1     2    15    2
     2     1     5    1
     3     5    14   ar
     4     5     6   ar
     5    15    14    1
     6    15     3   am
     7     7     6    1
     8    14    12   ar
     9     6     8   ar
    10    18    17    1
    11    12    13    1
    12    12    10   ar
    13     8    10   ar
    14     8     9    1
    15    10    11    1
    16    20    19    1
    17    17    19   ar
    18    17    16   ar
    19    19    21   ar
    20     3    16    1
    21     3    55    1
    22    16     4   ar
    23    21    22    1
    24    21    23   ar
    25     4    23   ar
    26    23    24    1
    27    27    24    1
    28    24    25    1
    29    24    26    1
    30    28    32    1
    31    54    51    1
    32    47    46    1
    33    49    48    1
    34    34    33    1
    35    46    48   ar
    36    46    44   ar
    37    48    50   ar
    38    45    44    1
    39    44    43   ar
    40    51    50    1
    41    51    53    1
    42    51    52    1
    43    50    31   ar
    44    32    33   ar
    45    32    41   ar
    46    33    35   ar
    47    43    31   ar
    48    43    30    1
    49    30    56    1
    50    30    42   am
    51    42    29    2
    52    42    41    1
    53    41    39   ar
    54    35    36    1
    55    35    37   ar
    56    39    37   ar
    57    39    40    1
    58    37    38    1
