@<TRIPOS>MOLECULE
Bis(2-bromobenzyl) trisulfide
 16 16 0 0 0
SMALL
GASTEIGER

@<TRIPOS>ATOM
      1 BR          5.3954    4.9564    0.6199 Br      1  LIG1       -0.0500
      2 S           6.3855   -0.0000    1.2080 S.3     1  LIG1       -0.0126
      3 S           6.8624    1.5605   -0.0171 S.3     1  LIG1       -0.0763
      4 C           5.2527    2.0626   -0.7269 C.3     1  LIG1        0.0308
      5 H           5.3906    2.8614   -1.2947 H       1  LIG1        0.0434
      6 H           4.9207    1.3343   -1.3100 H       1  LIG1        0.0434
      7 C           4.2055    2.3741    0.2953 C.ar    1  LIG1       -0.0228
      8 C           3.2298    1.3773    0.6307 C.ar    1  LIG1       -0.0567
      9 H           3.2489    0.5368    0.1882 H       1  LIG1        0.0621
     10 C           2.2783    1.6144    1.5700 C.ar    1  LIG1       -0.0614
     11 H           1.6372    0.9434    1.7730 H       1  LIG1        0.0618
     12 C           2.2349    2.8340    2.2355 C.ar    1  LIG1       -0.0607
     13 H           1.5734    2.9891    2.8991 H       1  LIG1        0.0618
     14 C           3.1544    3.8178    1.9330 C.ar    1  LIG1       -0.0475
     15 H           3.1238    4.6543    2.3827 H       1  LIG1        0.0629
     16 C           4.1148    3.5833    0.9784 C.ar    1  LIG1        0.0219
@<TRIPOS>BOND
     1     6     4    1
     2     5     4    1
     3     4     3    1
     4     4     7    1
     5     3     2    1
     6     9     8    1
     7     7     8   ar
     8     7    16   ar
     9     1    16    1
    10     8    10   ar
    11    16    14   ar
    12    10    11    1
    13    10    12   ar
    14    14    12   ar
    15    14    15    1
    16    12    13    1
