@<TRIPOS>MOLECULE
1',3',3'-Trimethyl-2,3-diphenyl-2,3-dihydroisoxazole-5(4<i>H</i>)-spiro- 2'-indoline
 54 58 0 0 0
SMALL
GASTEIGER

@<TRIPOS>ATOM
      1 C           7.8359    8.3385    0.6321 C.3     1  LIG1        0.1743
      2 C           9.3812    8.4067    0.8689 C.3     1  LIG1        0.0401
      3 C           9.7306    9.6827    0.1128 C.ar    1  LIG1       -0.0162
      4 C          10.9396   10.1948   -0.2863 C.ar    1  LIG1       -0.0562
      5 H          11.7400    9.7060   -0.1376 H       1  LIG1        0.0621
      6 C          10.9787   11.4420   -0.9147 C.ar    1  LIG1       -0.0614
      7 H          11.8103   11.8077   -1.1948 H       1  LIG1        0.0618
      8 C           9.8116   12.1393   -1.1267 C.ar    1  LIG1       -0.0600
      9 H           9.8495   12.9857   -1.5568 H       1  LIG1        0.0618
     10 C           8.5809   11.6379   -0.7288 C.ar    1  LIG1       -0.0403
     11 H           7.7785   12.1240   -0.8800 H       1  LIG1        0.0636
     12 C           8.5678   10.4015   -0.1016 C.ar    1  LIG1        0.0355
     13 C           6.2145    6.5234    0.9222 C.3     1  LIG1        0.0865
     14 H           5.3306    6.8792    0.6197 H       1  LIG1        0.0600
     15 C           6.9931    7.6034    1.6782 C.3     1  LIG1        0.0235
     16 H           6.3697    8.2315    2.1232 H       1  LIG1        0.0335
     17 H           7.5747    7.1937    2.3649 H       1  LIG1        0.0335
     18 C           6.6233    5.6554   -1.3882 C.ar    1  LIG1        0.0653
     19 C           7.3023    5.8324   -2.5818 C.ar    1  LIG1       -0.0363
     20 H           8.0329    6.4371   -2.6240 H       1  LIG1        0.0639
     21 C           6.9202    5.1289   -3.7159 C.ar    1  LIG1       -0.0598
     22 H           7.3799    5.2619   -4.5365 H       1  LIG1        0.0618
     23 C           5.8653    4.2321   -3.6478 C.ar    1  LIG1       -0.0616
     24 H           5.6102    3.7406   -4.4187 H       1  LIG1        0.0618
     25 C           5.1930    4.0551   -2.4703 C.ar    1  LIG1       -0.0598
     26 H           4.4774    3.4333   -2.4281 H       1  LIG1        0.0618
     27 C           5.5464    4.7775   -1.3312 C.ar    1  LIG1       -0.0363
     28 H           5.0564    4.6715   -0.5243 H       1  LIG1        0.0639
     29 C           6.0221    5.2672    1.7415 C.ar    1  LIG1       -0.0225
     30 C           7.0510    4.3768    1.9509 C.ar    1  LIG1       -0.0565
     31 H           7.9012    4.5430    1.5605 H       1  LIG1        0.0621
     32 C           6.8658    3.2437    2.7206 C.ar    1  LIG1       -0.0614
     33 H           7.5855    2.6381    2.8533 H       1  LIG1        0.0618
     34 C           5.6481    2.9921    3.2945 C.ar    1  LIG1       -0.0617
     35 H           5.5272    2.2104    3.8200 H       1  LIG1        0.0618
     36 C           4.5982    3.8628    3.1148 C.ar    1  LIG1       -0.0614
     37 H           3.7576    3.6921    3.5213 H       1  LIG1        0.0618
     38 C           4.7826    4.9986    2.3277 C.ar    1  LIG1       -0.0565
     39 H           4.0570    5.5970    2.1901 H       1  LIG1        0.0621
     40 C           6.1141   10.0654    0.0025 C.3     1  LIG1        0.0034
     41 H           5.9349   11.0053    0.2169 H       1  LIG1        0.0429
     42 H           5.4695    9.4949    0.4710 H       1  LIG1        0.0429
     43 H           6.0287    9.9298   -0.9643 H       1  LIG1        0.0429
     44 C           9.6889    8.6260    2.3562 C.3     1  LIG1       -0.0514
     45 H          10.6324    8.8695    2.4616 H       1  LIG1        0.0240
     46 H           9.5067    7.8011    2.8520 H       1  LIG1        0.0240
     47 H           9.1243    9.3475    2.7033 H       1  LIG1        0.0240
     48 C          10.1092    7.1811    0.3532 C.3     1  LIG1       -0.0514
     49 H           9.8928    7.0490   -0.5937 H       1  LIG1        0.0240
     50 H           9.8278    6.3949    0.8652 H       1  LIG1        0.0240
     51 H          11.0743    7.3087    0.4536 H       1  LIG1        0.0240
     52 N           7.4657    9.7213    0.4227 N.pl3   1  LIG1       -0.3024
     53 N           7.0947    6.3104   -0.2231 N.4     1  LIG1       -0.2428
     54 O           7.5384    7.6385   -0.6153 O.3     1  LIG1       -0.2440
@<TRIPOS>BOND
     1    22    21    1
     2    24    23    1
     3    21    23   ar
     4    21    19   ar
     5    23    25   ar
     6    20    19    1
     7    19    18   ar
     8    25    26    1
     9    25    27   ar
    10     9     8    1
    11    18    27   ar
    12    18    53    1
    13    27    28    1
    14     7     6    1
    15     8     6   ar
    16     8    10   ar
    17    43    40    1
    18     6     4   ar
    19    11    10    1
    20    10    12   ar
    21    54    53    1
    22    54     1    1
    23    49    48    1
    24     4     5    1
    25     4     3   ar
    26    53    13    1
    27    12     3   ar
    28    12    52    1
    29    40    41    1
    30    40    52    1
    31    40    42    1
    32     3     2    1
    33    48    51    1
    34    48    50    1
    35    48     2    1
    36    52     1    1
    37    14    13    1
    38     1     2    1
    39     1    15    1
    40     2    44    1
    41    13    15    1
    42    13    29    1
    43    31    30    1
    44    15    16    1
    45    15    17    1
    46    29    30   ar
    47    29    38   ar
    48    30    32   ar
    49    39    38    1
    50    38    36   ar
    51    44    45    1
    52    44    47    1
    53    44    46    1
    54    32    33    1
    55    32    34   ar
    56    36    34   ar
    57    36    37    1
    58    34    35    1
