@<TRIPOS>MOLECULE
1,4-Bis(2-pyridylmethyleneaminomethyl)benzene
 21 21 0 0 0
SMALL
GASTEIGER

@<TRIPOS>ATOM
      1 N           4.3043    8.6602   10.8594 N.ar    1  LIG1       -0.2541
      2 N           2.5569    7.1914    8.1653 N.2     1  LIG1       -0.2851
      3 C           3.8607    7.6432   10.1155 C.ar    1  LIG1        0.0814
      4 C           4.2624    6.3356   10.3219 C.ar    1  LIG1       -0.0348
      5 H           3.9125    5.6472    9.8031 H       1  LIG1        0.0639
      6 C           5.1848    6.0673   11.3034 C.ar    1  LIG1       -0.0583
      7 H           5.4860    5.1992   11.4461 H       1  LIG1        0.0619
      8 C           5.6515    7.1012   12.0669 C.ar    1  LIG1       -0.0436
      9 H           6.2728    6.9501   12.7425 H       1  LIG1        0.0633
     10 C           5.1831    8.3657   11.8154 C.ar    1  LIG1        0.0283
     11 H           5.4995    9.0609   12.3457 H       1  LIG1        0.0830
     12 C           2.9216    8.0109    9.0439 C.2     1  LIG1        0.0478
     13 H           2.5874    8.8785    9.0168 H       1  LIG1        0.0847
     14 C           1.6687    7.6836    7.1136 C.3     1  LIG1        0.0614
     15 H           1.4127    8.5997    7.3016 H       1  LIG1        0.0555
     16 H           0.8635    7.1429    7.0840 H       1  LIG1        0.0555
     17 C           2.3800    7.6141    5.7859 C.2     1  LIG1       -0.0442
     18 C           2.2968    6.4953    4.9766 C.3     1  LIG1       -0.0036
     19 H           1.7684    5.7773    5.2417 H       1  LIG1        0.0358
     20 C           3.1737    8.6628    5.3597 C.2     1  LIG1       -0.0605
     21 H           3.2451    9.4264    5.8862 H       1  LIG1        0.0618
@<TRIPOS>BOND
     1    18    19    1
     2    18    17    1
     3    20    17    2
     4    20    21    1
     5    17    14    1
     6    16    14    1
     7    14    15    1
     8    14     2    1
     9     2    12    2
    10    13    12    1
    11    12     3    1
    12     5     4    1
    13     3     4   ar
    14     3     1   ar
    15     4     6   ar
    16     1    10   ar
    17     6     7    1
    18     6     8   ar
    19    10     8   ar
    20    10    11    1
    21     8     9    1
