@<TRIPOS>MOLECULE
<i>N</i>'-[(<i>Z</i>)-4-Methylbenzylidene]-4-nitrobenzohydrazide monohydrate
 37 37 0 0 0
SMALL
GASTEIGER

@<TRIPOS>ATOM
      1 O           8.7109    5.2388   -0.7346 O.2     1  LIG1       -0.2688
      2 O           4.8664    7.3042   -6.0527 O.2     1  LIG1       -0.1261
      3 O           3.1078    7.3463   -4.7878 O.2     1  LIG1       -0.1261
      4 N           7.6694    4.6337    1.6621 N.3     1  LIG1       -0.1326
      5 N           6.8867    5.0770    0.6077 N.am    1  LIG1       -0.2288
      6 N           4.3074    7.1500   -4.9740 N.pl3   1  LIG1        0.0564
      7 C           9.0264    3.6488    4.0482 C.ar    1  LIG1       -0.0567
      8 H           9.5501    3.6810    3.2803 H       1  LIG1        0.0621
      9 C           9.5674    3.1834    5.2407 C.ar    1  LIG1       -0.0585
     10 H          10.4551    2.9058    5.2594 H       1  LIG1        0.0620
     11 C           8.8078    3.1226    6.4161 C.ar    1  LIG1       -0.0504
     12 C           7.4786    3.5516    6.3658 C.ar    1  LIG1       -0.0585
     13 H           6.9566    3.5226    7.1356 H       1  LIG1        0.0620
     14 C           6.9279    4.0215    5.1775 C.ar    1  LIG1       -0.0567
     15 H           6.0434    4.3078    5.1627 H       1  LIG1        0.0621
     16 C           7.6898    4.0692    4.0041 C.ar    1  LIG1       -0.0253
     17 C           7.0431    4.5452    2.7841 C.3     1  LIG1        0.0930
     18 H           6.1473    4.7929    2.8190 H       1  LIG1        0.0564
     19 C           7.4862    5.3432   -0.5711 C.2     1  LIG1        0.2588
     20 C           6.6020    5.8057   -1.6870 C.ar    1  LIG1        0.0381
     21 C           5.2612    6.1645   -1.5092 C.ar    1  LIG1       -0.0474
     22 H           4.8717    6.1000   -0.6670 H       1  LIG1        0.0626
     23 C           4.5091    6.6164   -2.5870 C.ar    1  LIG1       -0.0308
     24 H           3.6185    6.8595   -2.4762 H       1  LIG1        0.0640
     25 C           5.1150    6.6975   -3.8318 C.ar    1  LIG1        0.1262
     26 C           6.4438    6.3552   -4.0434 C.ar    1  LIG1       -0.0308
     27 H           6.8273    6.4245   -4.8885 H       1  LIG1        0.0640
     28 C           7.1831    5.9060   -2.9560 C.ar    1  LIG1       -0.0474
     29 H           8.0751    5.6694   -3.0730 H       1  LIG1        0.0626
     30 C           9.4043    2.6071    7.6963 C.3     1  LIG1       -0.0397
     31 H           8.7445    2.6395    8.3932 H       1  LIG1        0.0278
     32 H          10.1549    3.1526    7.9412 H       1  LIG1        0.0278
     33 H           9.6945    1.7003    7.5719 H       1  LIG1        0.0278
     34 O           4.2172    4.3977    1.2075 O.3     2  HOH2       -0.4105
     35 H           6.0341    5.0185    0.7340 H       1  LIG1        0.1709
     36 H           4.2981    3.5765    1.0659 H       0  HOH0        0.2052
     37 H           3.4039    4.5847    1.0410 H       0  HOH0        0.2052
@<TRIPOS>BOND
     1     2     6    2
     2     6     3    2
     3     6    25    1
     4    27    26    1
     5    26    25   ar
     6    26    28   ar
     7    25    23   ar
     8    29    28    1
     9    28    20   ar
    10    23    24    1
    11    23    21   ar
    12    20    21   ar
    13    20    19    1
    14    21    22    1
    15     1    19    2
    16    19     5   am
    17     5    35    1
    18     5     4    1
    19    37    34    1
    20    36    34    1
    21     4    17    1
    22    17    18    1
    23    17    16    1
    24     8     7    1
    25    16     7   ar
    26    16    14   ar
    27     7     9   ar
    28    15    14    1
    29    14    12   ar
    30     9    10    1
    31     9    11   ar
    32    12    11   ar
    33    12    13    1
    34    11    30    1
    35    33    30    1
    36    30    32    1
    37    30    31    1
