@<TRIPOS>MOLECULE
3-[1-(4-Isobutylphenyl)ethyl]-4-[(<i>E</i>)-4-methylbenzylideneamino]- 1<i>H</i>-1,2,4-triazole-5(4<i>H</i>)-thione
 53 55 0 0 0
SMALL
GASTEIGER

@<TRIPOS>ATOM
      1 S           8.2104   -3.0332   13.6503 S.2     1  LIG1       -0.0097
      2 N           9.0860   -3.2798    9.8503 N.ar    1  LIG1       -0.1561
      3 N           8.6872   -3.7590   11.0780 N.ar    1  LIG1       -0.2529
      4 N           8.8150   -1.6465   11.3173 N.ar    1  LIG1       -0.1919
      5 N           8.9337   -0.3251   11.7430 N.2     1  LIG1       -0.1708
      6 C           8.1887    1.1841    9.0693 C.ar    1  LIG1       -0.0576
      7 H           8.9231    1.5968    9.4634 H       1  LIG1        0.0621
      8 C           7.0047    1.9034    8.8989 C.ar    1  LIG1       -0.0583
      9 H           6.9633    2.7885    9.1815 H       1  LIG1        0.0620
     10 C           5.8811    1.3175    8.3120 C.ar    1  LIG1       -0.0471
     11 C           6.0022   -0.0001    7.8583 C.ar    1  LIG1       -0.0583
     12 H           5.2789   -0.4051    7.4369 H       1  LIG1        0.0620
     13 C           7.1850   -0.7175    8.0250 C.ar    1  LIG1       -0.0576
     14 H           7.2404   -1.5907    7.7099 H       1  LIG1        0.0621
     15 C           8.2861   -0.1439    8.6581 C.ar    1  LIG1       -0.0371
     16 C           9.5265   -0.9741    8.9759 C.3     1  LIG1        0.0430
     17 H          10.2046   -0.3752    9.3542 H       1  LIG1        0.0426
     18 C           9.1656   -1.9899   10.0234 C.ar    1  LIG1        0.1604
     19 C           8.5458   -2.8071   12.0153 C.ar    1  LIG1        0.1965
     20 C           8.1806    0.0140   12.7297 C.2     1  LIG1        0.0556
     21 H           7.6072   -0.6143   13.1063 H       1  LIG1        0.0853
     22 C           8.2137    1.3726   13.2654 C.ar    1  LIG1       -0.0052
     23 C           7.4783    1.6274   14.4258 C.ar    1  LIG1       -0.0528
     24 H           6.9718    0.9491   14.8103 H       1  LIG1        0.0624
     25 C           7.4993    2.8893   15.0093 C.ar    1  LIG1       -0.0582
     26 H           7.0120    3.0442   15.7854 H       1  LIG1        0.0620
     27 C           8.2419    3.9261   14.4450 C.ar    1  LIG1       -0.0504
     28 C           8.9397    3.6753   13.2574 C.ar    1  LIG1       -0.0582
     29 H           9.4114    4.3659   12.8498 H       1  LIG1        0.0620
     30 C           8.9405    2.4141   12.6770 C.ar    1  LIG1       -0.0528
     31 H           9.4238    2.2608   11.8975 H       1  LIG1        0.0624
     32 C           4.5423    2.0242    8.2456 C.3     1  LIG1       -0.0253
     33 C           4.5657    3.5436    8.0445 C.3     1  LIG1       -0.0427
     34 H           5.0768    3.9396    8.7815 H       1  LIG1        0.0299
     35 C           5.2405    3.9381    6.7357 C.3     1  LIG1       -0.0624
     36 H           5.2497    4.8949    6.6560 H       1  LIG1        0.0232
     37 H           4.7546    3.5597    5.9983 H       1  LIG1        0.0232
     38 H           6.1423    3.6081    6.7284 H       1  LIG1        0.0232
     39 C           3.1408    4.0902    8.1095 C.3     1  LIG1       -0.0624
     40 H           3.1607    5.0461    8.0248 H       1  LIG1        0.0232
     41 H           2.7448    3.8514    8.9504 H       1  LIG1        0.0232
     42 H           2.6214    3.7163    7.3937 H       1  LIG1        0.0232
     43 C           8.3217    5.2657   15.1218 C.3     1  LIG1       -0.0397
     44 H           7.4358    5.5747   15.3258 H       1  LIG1        0.0278
     45 H           8.7531    5.8942   14.5373 H       1  LIG1        0.0278
     46 H           8.8266    5.1841   15.9340 H       1  LIG1        0.0278
     47 C          10.1321   -1.6638    7.7498 C.3     1  LIG1       -0.0514
     48 H          10.9363   -2.1220    8.0045 H       1  LIG1        0.0240
     49 H          10.3368   -1.0063    7.0814 H       1  LIG1        0.0240
     50 H           9.5027   -2.2962    7.3950 H       1  LIG1        0.0240
     51 H           4.0528    1.8371    9.0622 H       1  LIG1        0.0316
     52 H           4.0077    1.6479    7.5359 H       1  LIG1        0.0316
     53 H           8.7270   -4.5990   11.2537 H       1  LIG1        0.1911
@<TRIPOS>BOND
     1    37    35    1
     2    36    35    1
     3    38    35    1
     4    35    33    1
     5    49    47    1
     6    42    39    1
     7    50    47    1
     8    12    11    1
     9    52    32    1
    10    14    13    1
    11    47    48    1
    12    47    16    1
    13    11    13   ar
    14    11    10   ar
    15    40    39    1
    16    13    15   ar
    17    33    39    1
    18    33    32    1
    19    33    34    1
    20    39    41    1
    21    32    10    1
    22    32    51    1
    23    10     8   ar
    24    15    16    1
    25    15     6   ar
    26     8     6   ar
    27     8     9    1
    28    16    17    1
    29    16    18    1
    30     6     7    1
    31     2    18   ar
    32     2     3   ar
    33    18     4   ar
    34     3    53    1
    35     3    19   ar
    36     4     5    1
    37     4    19   ar
    38     5    20    2
    39    31    30    1
    40    19     1    2
    41    30    28   ar
    42    30    22   ar
    43    20    21    1
    44    20    22    1
    45    29    28    1
    46    28    27   ar
    47    22    23   ar
    48    23    24    1
    49    23    25   ar
    50    27    25   ar
    51    27    43    1
    52    45    43    1
    53    25    26    1
    54    43    44    1
    55    43    46    1
