@<TRIPOS>MOLECULE
1-(3-Chlorophenyl)-3-(1-<i>p</i>-tolylimidazolidin-2-ylidene)urea
 40 42 0 0 0
SMALL
GASTEIGER

@<TRIPOS>ATOM
      1 N          -2.1087    6.7822    5.2359 N.pl3   1  LIG1       -0.1910
      2 C          -1.3689    6.0913    6.1509 C.2     1  LIG1        0.3712
      3 N          -1.5849    6.6150    7.3705 N.pl3   1  LIG1       -0.2366
      4 H          -1.0830    6.3280    7.9392 H       1  LIG1        0.2443
      5 C          -2.3052    7.8647    7.3177 C.3     1  LIG1        0.0870
      6 H          -1.7219    8.6141    7.5130 H       1  LIG1        0.0662
      7 H          -3.0482    7.8681    7.9410 H       1  LIG1        0.0662
      8 C          -2.7956    7.9096    5.8750 C.3     1  LIG1        0.0941
      9 H          -3.7585    7.7998    5.8312 H       1  LIG1        0.0668
     10 H          -2.5545    8.7490    5.4516 H       1  LIG1        0.0668
     11 N          -0.5802    5.0932    5.8200 N.am    1  LIG1        0.0110
     12 C           0.2061    4.5433    6.8002 C.2     1  LIG1        0.4026
     13 O           0.2479    4.8645    7.9979 O.2     1  LIG1       -0.2299
     14 N           0.9991    3.5640    6.2823 N.am    1  LIG1       -0.2537
     15 H           0.9515    3.4121    5.3658 H       1  LIG1        0.1578
     16 C          -2.3595    6.4638    3.8793 C.ar    1  LIG1        0.0943
     17 C          -2.9466    7.4322    3.0726 C.ar    1  LIG1       -0.0248
     18 H          -3.1233    8.2775    3.4184 H       1  LIG1        0.0650
     19 C          -3.2698    7.1473    1.7567 C.ar    1  LIG1       -0.0558
     20 H          -3.6545    7.8122    1.2319 H       1  LIG1        0.0621
     21 C          -3.0393    5.9106    1.2055 C.ar    1  LIG1       -0.0502
     22 C          -2.4479    4.9564    2.0177 C.ar    1  LIG1       -0.0558
     23 H          -2.2738    4.1132    1.6654 H       1  LIG1        0.0621
     24 C          -2.1071    5.2113    3.3354 C.ar    1  LIG1       -0.0248
     25 H          -1.7109    4.5474    3.8537 H       1  LIG1        0.0650
     26 C          -3.4637    5.5726   -0.2044 C.3     1  LIG1       -0.0397
     27 H          -4.3673    5.2500   -0.1971 H       1  LIG1        0.0278
     28 H          -2.8849    4.8964   -0.5594 H       1  LIG1        0.0278
     29 H          -3.4104    6.3605   -0.7510 H       1  LIG1        0.0278
     30 C           2.0595    2.8671    6.8869 C.ar    1  LIG1        0.0375
     31 C           2.4228    3.0143    8.2148 C.ar    1  LIG1       -0.0220
     32 H           1.9541    3.5951    8.7705 H       1  LIG1        0.0651
     33 C           3.4946    2.2840    8.7066 C.ar    1  LIG1        0.0427
     34 C           4.2020    1.4106    7.9365 C.ar    1  LIG1       -0.0433
     35 H           4.9142    0.9275    8.2887 H       1  LIG1        0.0632
     36 C           3.8231    1.2648    6.6142 C.ar    1  LIG1       -0.0586
     37 H           4.2930    0.6762    6.0685 H       1  LIG1        0.0619
     38 C           2.7623    1.9755    6.0895 C.ar    1  LIG1       -0.0403
     39 H           2.5190    1.8565    5.1997 H       1  LIG1        0.0636
     40 CL          3.9295    2.4871   10.3721 Cl      1  LIG1       -0.0835
@<TRIPOS>BOND
     1    29    26    1
     2    28    26    1
     3    26    27    1
     4    26    21    1
     5    21    19   ar
     6    21    22   ar
     7    20    19    1
     8    23    22    1
     9    19    17   ar
    10    22    24   ar
    11    17    18    1
    12    17    16   ar
    13    24    25    1
    14    24    16   ar
    15    16     1    1
    16    39    38    1
    17     1     8    1
    18     1     2    1
    19    15    14    1
    20    10     8    1
    21    11     2    2
    22    11    12    1
    23     9     8    1
    24     8     5    1
    25    37    36    1
    26    38    36   ar
    27    38    30   ar
    28     2     3    1
    29    14    12   am
    30    14    30    1
    31    36    34   ar
    32    12    13    2
    33    30    31   ar
    34     5     3    1
    35     5     6    1
    36     5     7    1
    37     3     4    1
    38    34    35    1
    39    34    33   ar
    40    31    33   ar
    41    31    32    1
    42    33    40    1
