@<TRIPOS>MOLECULE
2-Carboxypyridinium hydrogen chloranilate
 28 28 0 0 0
SMALL
GASTEIGER

@<TRIPOS>ATOM
      1 CL         -1.9793    5.7093    1.8493 Cl      1  LIG1       -0.0755
      2 CL          4.2673    5.7377    0.7164 Cl      1  LIG1       -0.0980
      3 O          -0.1815    8.0467    1.5683 O.2     1  LIG1       -0.2824
      4 O          -0.1447    3.3556    1.5881 O.2     1  LIG1       -0.5023
      5 O           2.3966    3.4007    0.9859 O.2     1  LIG1       -0.2863
      6 O           2.4489    8.1274    1.0448 O.2     1  LIG1       -0.2861
      7 O           0.4367    8.9816    4.5829 O.2     1  LYS1       -0.2437
      8 OXT         2.3568    9.3839    5.6986 O.3     1  LYS1       -0.4763
      9 N           1.3592   10.3747    2.4647 N.pl3   1  LYS1       -0.3155
     10 C           0.3988    6.9734    1.4404 C.2     1  LIG1        0.2452
     11 C          -0.2814    5.7003    1.5550 C.2     1  LIG1        0.1359
     12 C           0.4077    4.5443    1.4497 C.2     1  LIG1        0.1841
     13 C           1.8965    4.5218    1.1363 C.2     1  LIG1        0.2296
     14 C           2.5671    5.7637    1.0230 C.3     1  LIG1        0.2088
     15 C           1.9191    6.9860    1.1475 C.2     1  LIG1        0.2348
     16 CA          2.0548   10.4036    3.6202 C.2     1  LYS1        0.1126
     17 CB          3.1583   11.2174    3.7275 C.2     1  LYS1       -0.0481
     18 HB          3.6631   11.2391    4.5319 H       1  LYS1        0.0599
     19 CG          3.5289   12.0101    2.6416 C.3     1  LYS1        0.0087
     20 HG          4.2878   12.5780    2.7012 H       1  LYS1        0.0395
     21 CD          2.7838   11.9634    1.4775 C.2     1  LYS1       -0.0624
     22 HD          3.0207   12.5071    0.7348 H       1  LYS1        0.0591
     23 CE          1.6929   11.1225    1.4033 C.2     1  LYS1       -0.0094
     24 HE          1.1816   11.0737    0.6049 H       1  LYS1        0.0778
     25 C           1.5293    9.5081    4.6975 C.2     1  LYS1        0.3508
     26 H           0.6436    9.8056    2.4051 H       1  LYS1        0.1518
     27 H           0.4292    2.8295    1.5040 H       1  LIG1        0.2923
     28 HXT         1.9874    8.9274    6.3870 H       1  LYS1        0.2954
@<TRIPOS>BOND
     1    24    23    1
     2     2    14    1
     3    22    21    1
     4     5    13    2
     5    14    13    1
     6    14    15    1
     7     6    15    2
     8    13    12    1
     9    15    10    1
    10    23    21    2
    11    23     9    1
    12    10    11    1
    13    10     3    2
    14    12    11    2
    15    12     4    1
    16    21    19    1
    17    27     4    1
    18    11     1    1
    19    26     9    1
    20     9    16    1
    21    19    20    1
    22    19    17    1
    23    16    17    2
    24    16    25    1
    25    17    18    1
    26     7    25    2
    27    25     8    1
    28     8    28    1
