@<TRIPOS>MOLECULE
3-(4-Pyridyl)benzoic acid
 24 25 0 0 0
SMALL
GASTEIGER

@<TRIPOS>ATOM
      1 O           5.5950    0.5401    2.2931 O.2     1  LIG1       -0.2451
      2 O           5.1102   -1.2642    3.5019 O.3     1  LIG1       -0.4771
      3 H           5.1301   -1.6284    2.7685 H       1  LIG1        0.2954
      4 N           5.1332   -1.0106   10.8871 N.ar    1  LIG1       -0.2632
      5 C           4.4856    0.7784    9.4489 C.ar    1  LIG1       -0.0359
      6 H           4.0271    1.5807    9.3471 H       1  LIG1        0.0639
      7 C           4.5003    0.1431   10.6712 C.ar    1  LIG1        0.0281
      8 H           4.0465    0.5379   11.3796 H       1  LIG1        0.0830
      9 C           5.7732   -1.5527    9.8445 C.ar    1  LIG1        0.0281
     10 H           6.2206   -2.3578    9.9740 H       1  LIG1        0.0830
     11 C           5.8075   -0.9860    8.5952 C.ar    1  LIG1       -0.0359
     12 H           6.2649   -1.4075    7.9025 H       1  LIG1        0.0639
     13 C           5.1554    0.2195    8.3693 C.ar    1  LIG1       -0.0150
     14 C           5.1846    0.8984    7.0493 C.ar    1  LIG1       -0.0170
     15 C           5.2378    0.1662    5.8674 C.ar    1  LIG1       -0.0400
     16 H           5.2367   -0.7630    5.9069 H       1  LIG1        0.0632
     17 C           5.2918    0.7960    4.6325 C.ar    1  LIG1        0.0594
     18 C           5.2889    2.1768    4.5760 C.ar    1  LIG1       -0.0477
     19 H           5.3405    2.6074    3.7536 H       1  LIG1        0.0626
     20 C           5.2100    2.9167    5.7344 C.ar    1  LIG1       -0.0604
     21 H           5.1924    3.8459    5.6888 H       1  LIG1        0.0618
     22 C           5.1564    2.2876    6.9598 C.ar    1  LIG1       -0.0540
     23 H           5.1011    2.7975    7.7350 H       1  LIG1        0.0624
     24 C           5.3546    0.0231    3.3603 C.2     1  LIG1        0.3368
@<TRIPOS>BOND
     1     1    24    2
     2     3     2    1
     3    24     2    1
     4    24    17    1
     5    19    18    1
     6    18    17   ar
     7    18    20   ar
     8    17    15   ar
     9    21    20    1
    10    20    22   ar
    11    15    16    1
    12    15    14   ar
    13    22    14   ar
    14    22    23    1
    15    14    13    1
    16    12    11    1
    17    13    11   ar
    18    13     5   ar
    19    11     9   ar
    20     6     5    1
    21     5     7   ar
    22     9    10    1
    23     9     4   ar
    24     7     4   ar
    25     7     8    1
