@<TRIPOS>MOLECULE
2,9-Dichloro-1,10-phenanthroline
 22 24 0 0 0
SMALL
GASTEIGER

@<TRIPOS>ATOM
      1 CL          0.5373    2.4501    2.9436 Cl      1  LIG1       -0.0620
      2 CL          6.9474    3.9766    5.3785 Cl      1  LIG1       -0.0620
      3 N           2.2902    1.9279    4.7963 N.ar    1  LIG1       -0.2331
      4 N           4.7979    2.5516    5.7588 N.ar    1  LIG1       -0.2331
      5 C           1.0874    1.6278    4.3964 C.ar    1  LIG1        0.1300
      6 C           0.2014    0.7292    5.0011 C.ar    1  LIG1       -0.0242
      7 H          -0.6617    0.5625    4.6431 H       1  LIG1        0.0648
      8 C           0.6454    0.1002    6.1404 C.ar    1  LIG1       -0.0496
      9 H           0.0893   -0.5284    6.5850 H       1  LIG1        0.0625
     10 C           1.9289    0.3919    6.6455 C.ar    1  LIG1        0.0026
     11 C           2.7260    1.3206    5.9421 C.ar    1  LIG1        0.0985
     12 C           2.4243   -0.2159    7.8494 C.ar    1  LIG1       -0.0519
     13 H           1.9015   -0.8724    8.2951 H       1  LIG1        0.0624
     14 C           3.6263    0.1361    8.3545 C.ar    1  LIG1       -0.0519
     15 H           3.9292   -0.2602    9.1626 H       1  LIG1        0.0624
     16 C           4.4498    1.0985    7.6870 C.ar    1  LIG1        0.0026
     17 C           4.0295    1.6650    6.4572 C.ar    1  LIG1        0.0985
     18 C           5.6881    1.5148    8.2233 C.ar    1  LIG1       -0.0496
     19 H           5.9918    1.1734    9.0566 H       1  LIG1        0.0625
     20 C           6.4453    2.4195    7.5239 C.ar    1  LIG1       -0.0242
     21 H           7.2802    2.7272    7.8573 H       1  LIG1        0.0648
     22 C           5.9396    2.8739    6.2948 C.ar    1  LIG1        0.1300
@<TRIPOS>BOND
     1     1     5    1
     2     5     3   ar
     3     5     6   ar
     4     7     6    1
     5     3    11   ar
     6     6     8   ar
     7     2    22    1
     8     4    22   ar
     9     4    17   ar
    10    11    17   ar
    11    11    10   ar
    12     8     9    1
    13     8    10   ar
    14    22    20   ar
    15    17    16   ar
    16    10    12   ar
    17    20    21    1
    18    20    18   ar
    19    16    18   ar
    20    16    14   ar
    21    12    13    1
    22    12    14   ar
    23    18    19    1
    24    14    15    1
