@<TRIPOS>MOLECULE
(<i>E</i>)-2-{3-[4-(Diphenylamino)styryl]-5,5-dimethylcyclohex-2- enylidene}malononitrile
 61 64 0 0 0
SMALL
GASTEIGER

@<TRIPOS>ATOM
      1 N           8.0994    3.0622   10.7691 N.pl3   1  LIG1       -0.2692
      2 N           5.1685    9.2494    2.3711 N.1     1  LIG1       -0.1901
      3 N           3.1472    7.6104   -1.1445 N.1     1  LIG1       -0.1901
      4 C           6.8492    0.1706   12.7145 C.ar    1  LIG1       -0.0600
      5 H           6.0622   -0.3117   12.8332 H       1  LIG1        0.0618
      6 C           7.9562   -0.1818   13.4108 C.ar    1  LIG1       -0.0616
      7 H           7.9288   -0.8948   14.0057 H       1  LIG1        0.0618
      8 C           9.0972    0.5113   13.2321 C.ar    1  LIG1       -0.0600
      9 H           9.8592    0.2731   13.7094 H       1  LIG1        0.0618
     10 C           9.1482    1.5669   12.3516 C.ar    1  LIG1       -0.0400
     11 H           9.9460    2.0326   12.2383 H       1  LIG1        0.0636
     12 C           8.0363    1.9428   11.6379 C.ar    1  LIG1        0.0388
     13 C           6.8690    1.2419   11.8263 C.ar    1  LIG1       -0.0400
     14 H           6.0984    1.4813   11.3632 H       1  LIG1        0.0636
     15 C           8.4007    4.8473   12.4008 C.ar    1  LIG1       -0.0400
     16 H           7.7289    4.4724   12.9232 H       1  LIG1        0.0636
     17 C           9.0159    6.0069   12.8047 C.ar    1  LIG1       -0.0600
     18 H           8.7587    6.4146   13.5999 H       1  LIG1        0.0618
     19 C          10.0082    6.5674   12.0393 C.ar    1  LIG1       -0.0616
     20 H          10.4231    7.3530   12.3156 H       1  LIG1        0.0618
     21 C          10.3827    5.9683   10.8713 C.ar    1  LIG1       -0.0600
     22 H          11.0475    6.3526   10.3475 H       1  LIG1        0.0618
     23 C           9.7812    4.7962   10.4627 C.ar    1  LIG1       -0.0400
     24 H          10.0523    4.3836    9.6754 H       1  LIG1        0.0636
     25 C           8.7747    4.2380   11.2262 C.ar    1  LIG1        0.0388
     26 C           7.3994    3.1207    9.5528 C.ar    1  LIG1        0.0388
     27 C           6.9287    4.3466    9.0771 C.ar    1  LIG1       -0.0395
     28 H           7.0398    5.1126    9.5935 H       1  LIG1        0.0636
     29 C           6.3074    4.4356    7.8634 C.ar    1  LIG1       -0.0528
     30 H           6.0135    5.2667    7.5667 H       1  LIG1        0.0624
     31 C           6.0997    3.3102    7.0537 C.ar    1  LIG1       -0.0249
     32 C           6.5319    2.0859    7.5641 C.ar    1  LIG1       -0.0528
     33 H           6.3806    1.3137    7.0686 H       1  LIG1        0.0624
     34 C           7.1750    1.9854    8.7784 C.ar    1  LIG1       -0.0395
     35 H           7.4604    1.1546    9.0828 H       1  LIG1        0.0636
     36 C           5.4806    3.3873    5.7411 C.2     1  LIG1       -0.0543
     37 H           5.2534    2.5823    5.3334 H       1  LIG1        0.0624
     38 C           5.2060    4.5127    5.0640 C.2     1  LIG1       -0.0580
     39 H           5.4325    5.3136    5.4799 H       1  LIG1        0.0620
     40 C           4.6003    4.6127    3.7666 C.2     1  LIG1       -0.0465
     41 C           4.5387    5.8229    3.1541 C.2     1  LIG1       -0.0535
     42 H           4.8633    6.5654    3.6098 H       1  LIG1        0.0624
     43 C           4.0033    6.0107    1.8526 C.2     1  LIG1       -0.0189
     44 C           3.4389    4.8274    1.1362 C.3     1  LIG1       -0.0203
     45 H           4.1153    4.4758    0.5361 H       1  LIG1        0.0319
     46 H           2.6896    5.1209    0.5938 H       1  LIG1        0.0319
     47 C           2.9654    3.6991    2.0588 C.3     1  LIG1       -0.0269
     48 C           4.0704    3.3948    3.0732 C.3     1  LIG1       -0.0222
     49 H           3.7242    2.7817    3.7389 H       1  LIG1        0.0318
     50 H           4.8027    2.9509    2.6160 H       1  LIG1        0.0318
     51 C           1.6862    4.1063    2.7711 C.3     1  LIG1       -0.0592
     52 H           1.0079    4.3049    2.1214 H       1  LIG1        0.0235
     53 H           1.8530    4.8847    3.3077 H       1  LIG1        0.0235
     54 H           1.3899    3.3866    3.3331 H       1  LIG1        0.0235
     55 C           2.7116    2.4574    1.2132 C.3     1  LIG1       -0.0592
     56 H           3.5279    2.1901    0.7828 H       1  LIG1        0.0235
     57 H           2.0485    2.6543    0.5476 H       1  LIG1        0.0235
     58 H           2.3984    1.7461    1.7767 H       1  LIG1        0.0235
     59 C           4.0456    7.2382    1.2354 C.2     1  LIG1        0.1313
     60 C           4.6607    8.3641    1.8621 C.1     1  LIG1        0.1105
     61 C           3.5378    7.4423   -0.0834 C.1     1  LIG1        0.1105
@<TRIPOS>BOND
     1     3    61    3
     2    61    59    1
     3    45    44    1
     4    57    55    1
     5    46    44    1
     6    56    55    1
     7    44    43    1
     8    44    47    1
     9    55    58    1
    10    55    47    1
    11    59    43    2
    12    59    60    1
    13    43    41    1
    14    60     2    3
    15    47    51    1
    16    47    48    1
    17    52    51    1
    18    50    48    1
    19    51    53    1
    20    51    54    1
    21    48    49    1
    22    48    40    1
    23    41    42    1
    24    41    40    2
    25    40    38    1
    26    38    39    1
    27    38    36    2
    28    37    36    1
    29    36    31    1
    30    31    32   ar
    31    31    29   ar
    32    33    32    1
    33    32    34   ar
    34    30    29    1
    35    29    27   ar
    36    34    35    1
    37    34    26   ar
    38    27    26   ar
    39    27    28    1
    40    26     1    1
    41    24    23    1
    42    22    21    1
    43    23    21   ar
    44    23    25   ar
    45     1    25    1
    46     1    12    1
    47    21    19   ar
    48    25    15   ar
    49    14    13    1
    50    12    13   ar
    51    12    10   ar
    52    13     4   ar
    53    19    20    1
    54    19    17   ar
    55    11    10    1
    56    10     8   ar
    57    15    17   ar
    58    15    16    1
    59     4     5    1
    60     4     6   ar
    61    17    18    1
    62     8     6   ar
    63     8     9    1
    64     6     7    1
