@<TRIPOS>MOLECULE
2-[(4-Methoxyphenyl)iminomethyl]-4-nitrophenol
 32 33 0 0 0
SMALL
GASTEIGER

@<TRIPOS>ATOM
      1 H          -0.3712   11.7181    4.9250 H       1  LIG1        0.2922
      2 C           0.2457   11.8853    2.6979 C.ar    1  LIG1        0.0366
      3 C           0.5778   12.0169    1.3528 C.ar    1  LIG1       -0.0194
      4 H           1.0238   11.3290    0.9146 H       1  LIG1        0.0648
      5 C           0.2480   13.1600    0.6745 C.ar    1  LIG1        0.1270
      6 C          -0.3977   14.2213    1.2987 C.ar    1  LIG1       -0.0280
      7 H          -0.6114   14.9893    0.8206 H       1  LIG1        0.0641
      8 C          -0.7134   14.1180    2.6265 C.ar    1  LIG1       -0.0174
      9 H          -1.1289   14.8315    3.0548 H       1  LIG1        0.0655
     10 C          -0.4220   12.9561    3.3522 C.ar    1  LIG1        0.1256
     11 C           0.5694   10.6696    3.4034 C.2     1  LIG1        0.0389
     12 H           1.0209    9.9885    2.9592 H       1  LIG1        0.0837
     13 C           0.5127    9.3460    5.3934 C.ar    1  LIG1        0.0641
     14 C           0.1618    9.3801    6.7245 C.ar    1  LIG1       -0.0329
     15 H          -0.2196   10.1550    7.0697 H       1  LIG1        0.0640
     16 C           0.3566    8.3045    7.5610 C.ar    1  LIG1       -0.0180
     17 H           0.1115    8.3519    8.4576 H       1  LIG1        0.0655
     18 C           0.9209    7.1537    7.0496 C.ar    1  LIG1        0.1202
     19 C           1.2845    7.1020    5.7133 C.ar    1  LIG1       -0.0180
     20 H           1.6690    6.3282    5.3709 H       1  LIG1        0.0655
     21 C           1.0827    8.1815    4.8883 C.ar    1  LIG1       -0.0329
     22 H           1.3273    8.1335    3.9922 H       1  LIG1        0.0640
     23 C           0.7505    6.0227    9.1444 C.3     1  LIG1        0.0788
     24 H           0.9776    5.1824    9.5482 H       1  LIG1        0.0660
     25 H          -0.1999    6.1531    9.1902 H       1  LIG1        0.0660
     26 H           1.1935    6.7325    9.6149 H       1  LIG1        0.0660
     27 N           0.2433   10.5133    4.6351 N.2     1  LIG1       -0.2549
     28 N           0.5708   13.2560   -0.7379 N.pl3   1  LIG1        0.0564
     29 O          -0.7714   12.8575    4.6200 O.3     1  LIG1       -0.5061
     30 O           1.1659    6.0238    7.7788 O.3     1  LIG1       -0.4951
     31 O           1.2959   12.3927   -1.2291 O.2     1  LIG1       -0.1261
     32 O           0.0972   14.1675   -1.3953 O.2     1  LIG1       -0.1261
@<TRIPOS>BOND
     1    32    28    2
     2    31    28    2
     3    28     5    1
     4     5     6   ar
     5     5     3   ar
     6     7     6    1
     7     4     3    1
     8     6     8   ar
     9     3     2   ar
    10     8     9    1
    11     8    10   ar
    12     2    10   ar
    13     2    11    1
    14    12    11    1
    15    10    29    1
    16    11    27    2
    17    22    21    1
    18    29     1    1
    19    27    13    1
    20    21    13   ar
    21    21    19   ar
    22    20    19    1
    23    13    14   ar
    24    19    18   ar
    25    14    15    1
    26    14    16   ar
    27    18    16   ar
    28    18    30    1
    29    16    17    1
    30    30    23    1
    31    23    25    1
    32    23    24    1
    33    23    26    1
