@<TRIPOS>MOLECULE
Benzyl 2-(4-bromoanilino)-4,4-dimethyl-6-oxocyclohex-1-enecarbodithioate
 49 51 0 0 0
SMALL
GASTEIGER

@<TRIPOS>ATOM
      1 BR          7.5400    5.8502   12.3794 Br      1  LIG1       -0.0503
      2 S           6.9712   10.8190    2.8854 S.3     1  LIG1       -0.1122
      3 S           8.4665    8.9640    4.6143 S.2     1  LIG1       -0.0439
      4 O           4.7751   11.4481    3.8881 O.2     1  LIG1       -0.2919
      5 N           6.8089    8.4669    6.9471 N.pl3   1  LIG1       -0.3172
      6 H           7.5159    8.4595    6.4177 H       1  LIG1        0.1519
      7 C           5.7976    9.1510    6.4424 C.2     1  LIG1        0.0208
      8 C           4.5167    9.1271    7.2359 C.3     1  LIG1       -0.0082
      9 H           4.5575    9.8405    7.9215 H       1  LIG1        0.0331
     10 H           4.4553    8.2609    7.7102 H       1  LIG1        0.0331
     11 C           3.2475    9.3186    6.4076 C.3     1  LIG1       -0.0227
     12 C           3.4529   10.5999    5.6197 C.3     1  LIG1        0.0161
     13 H           2.6935   10.7075    4.9937 H       1  LIG1        0.0350
     14 H           3.4286   11.3635    6.2491 H       1  LIG1        0.0350
     15 C           4.7323   10.6710    4.8330 C.2     1  LIG1        0.1667
     16 C           5.8932    9.8603    5.2117 C.2     1  LIG1        0.0549
     17 C           3.0182    8.1349    5.4758 C.3     1  LIG1       -0.0591
     18 H           2.1777    8.2605    4.9892 H       1  LIG1        0.0235
     19 H           2.9712    7.3094    6.0019 H       1  LIG1        0.0235
     20 H           3.7597    8.0728    4.8374 H       1  LIG1        0.0235
     21 C           2.0480    9.4826    7.3472 C.3     1  LIG1       -0.0591
     22 H           1.2393    9.6462    6.8190 H       1  LIG1        0.0235
     23 H           2.2050   10.2414    7.9485 H       1  LIG1        0.0235
     24 H           1.9329    8.6656    7.8755 H       1  LIG1        0.0235
     25 C           7.0584    9.8548    4.3586 C.2     1  LIG1        0.0641
     26 C           8.4961   10.3933    1.9871 C.3     1  LIG1        0.0239
     27 H           9.2947   10.7121    2.4772 H       1  LIG1        0.0429
     28 H           8.5679    9.4138    1.8601 H       1  LIG1        0.0429
     29 C           8.3650   11.0979    0.6564 C.ar    1  LIG1       -0.0372
     30 C           7.4246   10.6581   -0.2742 C.ar    1  LIG1       -0.0578
     31 H           6.8708    9.9152   -0.0618 H       1  LIG1        0.0621
     32 C           7.2830   11.2820   -1.4993 C.ar    1  LIG1       -0.0615
     33 H           6.6420   10.9658   -2.1254 H       1  LIG1        0.0618
     34 C           8.0787   12.3685   -1.8084 C.ar    1  LIG1       -0.0617
     35 H           7.9868   12.7991   -2.6503 H       1  LIG1        0.0618
     36 C           9.0030   12.8264   -0.9014 C.ar    1  LIG1       -0.0615
     37 H           9.5453   13.5759   -1.1150 H       1  LIG1        0.0618
     38 C           9.1465   12.1933    0.3349 C.ar    1  LIG1       -0.0578
     39 H           9.7848   12.5177    0.9587 H       1  LIG1        0.0621
     40 C           6.8792    7.8499    8.2318 C.ar    1  LIG1        0.0312
     41 C           6.7260    8.5892    9.3894 C.ar    1  LIG1       -0.0395
     42 H           6.5093    9.5128    9.3377 H       1  LIG1        0.0636
     43 C           6.8875    7.9829   10.6235 C.ar    1  LIG1       -0.0460
     44 H           6.7712    8.4856   11.4226 H       1  LIG1        0.0629
     45 C           7.2204    6.6376   10.6853 C.ar    1  LIG1        0.0180
     46 C           7.3697    5.8920    9.5355 C.ar    1  LIG1       -0.0460
     47 H           7.5933    4.9706    9.5884 H       1  LIG1        0.0629
     48 C           7.1904    6.4990    8.3037 C.ar    1  LIG1       -0.0395
     49 H           7.2800    5.9888    7.5057 H       1  LIG1        0.0636
@<TRIPOS>BOND
     1    35    34    1
     2    33    32    1
     3    34    32   ar
     4    34    36   ar
     5    32    30   ar
     6    37    36    1
     7    36    38   ar
     8    30    31    1
     9    30    29   ar
    10    38    29   ar
    11    38    39    1
    12    29    26    1
    13    28    26    1
    14    26    27    1
    15    26     2    1
    16     2    25    1
    17     4    15    2
    18    25     3    2
    19    25    16    1
    20    15    16    1
    21    15    12    1
    22    20    17    1
    23    18    17    1
    24    13    12    1
    25    16     7    2
    26    17    19    1
    27    17    11    1
    28    12    14    1
    29    12    11    1
    30    11     8    1
    31    11    21    1
    32     6     5    1
    33     7     5    1
    34     7     8    1
    35    22    21    1
    36     5    40    1
    37     8    10    1
    38     8     9    1
    39    21    24    1
    40    21    23    1
    41    49    48    1
    42    40    48   ar
    43    40    41   ar
    44    48    46   ar
    45    42    41    1
    46    41    43   ar
    47    46    47    1
    48    46    45   ar
    49    43    45   ar
    50    43    44    1
    51    45     1    1
