@<TRIPOS>MOLECULE
Methyl 2-[2-((<i>Z</i>)-{1-<i>trans</i>-[2-(4-fluoro-3-methylphenyl)-2-\ methylcyclopropyl]ethylidene}aminooxymethyl)phenyl]-2-[(<i>E</i>)-\ methoxyimino]acetate
 58 60 0 0 0
SMALL
GASTEIGER

@<TRIPOS>ATOM
      1 F           7.8172    4.7584   13.6903 F       1  LIG1       -0.2052
      2 O           2.6969    2.6327    9.4025 O.2     1  LIG1       -0.3890
      3 O           3.2043    0.5340   12.3505 O.2     1  LIG1       -0.2431
      4 O           1.5043   -0.8727   12.0735 O.3     1  LIG1       -0.4633
      5 O           2.6784   -1.5596    8.3316 O.2     1  LIG1       -0.3964
      6 N           1.5006    3.2391    8.9338 N.2     1  LIG1       -0.0937
      7 N           2.1901   -1.3071    9.6129 N.2     1  LIG1       -0.0775
      8 C           5.1709    6.4365   11.9206 C.ar    1  LIG1       -0.0553
      9 H           4.8833    7.3047   11.7557 H       1  LIG1        0.0621
     10 C           6.2959    6.2254   12.6823 C.ar    1  LIG1       -0.0259
     11 H           6.7694    6.9447   13.0331 H       1  LIG1        0.0646
     12 C           6.7060    4.9530   12.9171 C.ar    1  LIG1        0.1263
     13 C           6.0752    3.8522   12.3955 C.ar    1  LIG1       -0.0150
     14 C           6.6112    2.4637   12.6166 C.3     1  LIG1       -0.0370
     15 H           7.4130    2.3449   12.1009 H       1  LIG1        0.0278
     16 H           5.9554    1.8199   12.3399 H       1  LIG1        0.0278
     17 H           6.8081    2.3405   13.5475 H       1  LIG1        0.0278
     18 C           4.9425    4.1007   11.6285 C.ar    1  LIG1       -0.0524
     19 H           4.4913    3.3774   11.2553 H       1  LIG1        0.0624
     20 C           4.4604    5.3689   11.3971 C.ar    1  LIG1       -0.0404
     21 C           3.2474    5.6114   10.5453 C.3     1  LIG1        0.0016
     22 C           3.5556    6.0000    9.1225 C.3     1  LIG1       -0.0549
     23 H           4.0943    6.7945    9.1169 H       1  LIG1        0.0238
     24 H           2.7358    6.1659    8.6501 H       1  LIG1        0.0238
     25 H           4.0339    5.2871    8.6920 H       1  LIG1        0.0238
     26 C           2.0258    6.1895   11.1966 C.3     1  LIG1       -0.0342
     27 H           2.0670    6.3769   12.1470 H       1  LIG1        0.0280
     28 H           1.4937    6.8150   10.6809 H       1  LIG1        0.0280
     29 C           2.0260    4.7572   10.7671 C.3     1  LIG1        0.0105
     30 H           2.1100    4.1151   11.5027 H       1  LIG1        0.0370
     31 C           1.2053    4.2748    9.6240 C.2     1  LIG1        0.0585
     32 C          -0.0376    5.0035    9.2209 C.3     1  LIG1       -0.0228
     33 H           0.1998    5.8374    8.8080 H       1  LIG1        0.0290
     34 H          -0.5754    5.1719    9.9974 H       1  LIG1        0.0290
     35 H          -0.5341    4.4677    8.5984 H       1  LIG1        0.0290
     36 C           3.1183    1.7016    8.4191 C.3     1  LIG1        0.1435
     37 H           3.3051    2.1593    7.5851 H       1  LIG1        0.0775
     38 H           2.4219    1.0457    8.2602 H       1  LIG1        0.0775
     39 C           4.3583    1.0276    8.9280 C.ar    1  LIG1        0.0017
     40 C           5.6171    1.4737    8.5284 C.ar    1  LIG1       -0.0546
     41 H           5.6831    2.1977    7.9499 H       1  LIG1        0.0622
     42 C           6.7641    0.8582    8.9771 C.ar    1  LIG1       -0.0614
     43 H           7.5941    1.1668    8.6920 H       1  LIG1        0.0618
     44 C           6.6924   -0.2045    9.8395 C.ar    1  LIG1       -0.0611
     45 H           7.4682   -0.6235   10.1344 H       1  LIG1        0.0618
     46 C           5.4666   -0.6421   10.2601 C.ar    1  LIG1       -0.0519
     47 H           5.4146   -1.3511   10.8598 H       1  LIG1        0.0624
     48 C           4.3000   -0.0452    9.8064 C.ar    1  LIG1        0.0171
     49 C           2.9989   -0.5764   10.2803 C.2     1  LIG1        0.1936
     50 C           2.5891   -0.2348   11.6795 C.2     1  LIG1        0.3613
     51 C           1.0444   -0.5794   13.4114 C.3     1  LIG1        0.0820
     52 H           1.7392   -0.7868   14.0409 H       1  LIG1        0.0661
     53 H           0.2679   -1.1095   13.6062 H       1  LIG1        0.0661
     54 H           0.8206    0.3517   13.4762 H       1  LIG1        0.0661
     55 C           1.6745   -2.2265    7.5701 C.3     1  LIG1        0.1072
     56 H           1.3924   -3.0166    8.0351 H       1  LIG1        0.0687
     57 H           2.0325   -2.4706    6.7129 H       1  LIG1        0.0687
     58 H           0.9237   -1.6407    7.4481 H       1  LIG1        0.0687
@<TRIPOS>BOND
     1    57    55    1
     2    58    55    1
     3    55    56    1
     4    55     5    1
     5    37    36    1
     6    41    40    1
     7    38    36    1
     8     5     7    1
     9    36    39    1
    10    36     2    1
    11    40    39   ar
    12    40    42   ar
    13    35    32    1
    14    24    22    1
    15    25    22    1
    16    43    42    1
    17    33    32    1
    18    39    48   ar
    19     6     2    1
    20     6    31    2
    21    42    44   ar
    22    23    22    1
    23    22    21    1
    24    32    31    1
    25    32    34    1
    26     7    49    2
    27    31    29    1
    28    48    46   ar
    29    48    49    1
    30    44    45    1
    31    44    46   ar
    32    46    47    1
    33    49    50    1
    34    21    29    1
    35    21    26    1
    36    21    20    1
    37    28    26    1
    38    29    26    1
    39    29    30    1
    40    26    27    1
    41    19    18    1
    42    20    18   ar
    43    20     8   ar
    44    18    13   ar
    45    50     4    1
    46    50     3    2
    47     9     8    1
    48     8    10   ar
    49     4    51    1
    50    15    14    1
    51    16    14    1
    52    13    14    1
    53    13    12   ar
    54    14    17    1
    55    10    12   ar
    56    10    11    1
    57    12     1    1
    58    51    54    1
    59    51    53    1
    60    51    52    1
