@<TRIPOS>MOLECULE
Ethyl 3-carboxy-5-nitrobenzoate
 26 26 0 0 0
SMALL
GASTEIGER

@<TRIPOS>ATOM
      1 O           0.1382    0.5425    5.4867 O.3     1  LIG1       -0.4614
      2 O          -1.6892    0.0585    6.6744 O.2     1  LIG1       -0.2450
      3 O          -2.3562    2.5092   10.9027 O.2     1  LIG1       -0.1261
      4 O          -1.1803    4.2887   11.2696 O.2     1  LIG1       -0.1261
      5 O           3.0859    4.8243    8.9839 O.3     1  LIG1       -0.4771
      6 O           3.5212    3.5660    7.1952 O.2     1  LIG1       -0.2451
      7 N          -1.4323    3.2673   10.6440 N.pl3   1  LIG1        0.0565
      8 C          -0.1851    1.6903    7.5111 C.ar    1  LIG1        0.0619
      9 C           1.0371    2.3276    7.3642 C.ar    1  LIG1       -0.0337
     10 H           1.5908    2.1228    6.6198 H       1  LIG1        0.0634
     11 C           1.4569    3.2664    8.3028 C.ar    1  LIG1        0.0618
     12 C           0.6481    3.5855    9.3847 C.ar    1  LIG1       -0.0175
     13 H           0.9184    4.2335   10.0247 H       1  LIG1        0.0648
     14 C          -0.5637    2.9315    9.5031 C.ar    1  LIG1        0.1277
     15 C          -0.9951    1.9816    8.6077 C.ar    1  LIG1       -0.0175
     16 H          -1.8239    1.5347    8.7333 H       1  LIG1        0.0648
     17 C          -0.6745    0.6805    6.5329 C.2     1  LIG1        0.3393
     18 C          -0.3156   -0.4176    4.4858 C.3     1  LIG1        0.0900
     19 H          -1.1525   -0.1008    4.0638 H       1  LIG1        0.0695
     20 H          -0.4905   -1.2950    4.9096 H       1  LIG1        0.0695
     21 C           0.7432   -0.5463    3.4755 C.3     1  LIG1       -0.0306
     22 H           0.8822    0.3186    3.0361 H       1  LIG1        0.0262
     23 H           0.4782   -1.2128    2.8070 H       1  LIG1        0.0262
     24 H           1.5752   -0.8301    3.9085 H       1  LIG1        0.0262
     25 C           2.7834    3.8976    8.1122 C.2     1  LIG1        0.3369
     26 H           3.9308    5.1234    8.7820 H       1  LIG1        0.2954
@<TRIPOS>BOND
     1    23    21    1
     2    22    21    1
     3    21    24    1
     4    21    18    1
     5    19    18    1
     6    18    20    1
     7    18     1    1
     8     1    17    1
     9    17     2    2
    10    17     8    1
    11    10     9    1
    12     6    25    2
    13     9     8   ar
    14     9    11   ar
    15     8    15   ar
    16    25    11    1
    17    25     5    1
    18    11    12   ar
    19    15    16    1
    20    15    14   ar
    21    26     5    1
    22    12    14   ar
    23    12    13    1
    24    14     7    1
    25     7     3    2
    26     7     4    2
