@<TRIPOS>MOLECULE
(<i>E</i>)-<i>N</i>'-(3,3-Diphenylallylidene)-<i>p</i>-toluenesulfonohydrazide
 47 49 0 0 0
SMALL
GASTEIGER

@<TRIPOS>ATOM
      1 S           4.1995    3.6523    5.4050 S.O2    1  LIG1        0.0865
      2 O           4.7579    4.8730    4.9293 O.2     1  LIG1       -0.1487
      3 O           3.1213    3.6791    6.3500 O.2     1  LIG1       -0.1487
      4 N           4.5164    2.5885    3.1222 N.2     1  LIG1       -0.1743
      5 N           3.5809    2.8428    4.1279 N.pl3   1  LIG1       -0.1367
      6 H           3.1035    2.2074    4.3375 H       1  LIG1        0.1966
      7 C           5.7121   -0.7001   -1.7640 C.ar    1  LIG1       -0.0540
      8 H           5.1185   -1.3804   -1.5425 H       1  LIG1        0.0624
      9 C           6.5941   -0.8767   -2.8297 C.ar    1  LIG1       -0.0612
     10 H           6.5861   -1.6745   -3.3070 H       1  LIG1        0.0618
     11 C           7.4709    0.1157   -3.1767 C.ar    1  LIG1       -0.0617
     12 H           8.0528   -0.0025   -3.8937 H       1  LIG1        0.0618
     13 C           7.4864    1.2865   -2.4599 C.ar    1  LIG1       -0.0612
     14 H           8.0868    1.9599   -2.6873 H       1  LIG1        0.0618
     15 C           6.6120    1.4705   -1.3990 C.ar    1  LIG1       -0.0540
     16 H           6.6301    2.2708   -0.9251 H       1  LIG1        0.0624
     17 C           5.7092    0.4782   -1.0305 C.ar    1  LIG1       -0.0173
     18 C           4.7658    0.6417    0.1053 C.2     1  LIG1       -0.0093
     19 C           3.5005   -0.1536    0.0637 C.ar    1  LIG1       -0.0173
     20 C           2.5744    0.0883   -0.9369 C.ar    1  LIG1       -0.0540
     21 H           2.7534    0.7443   -1.5711 H       1  LIG1        0.0624
     22 C           1.4042   -0.6112   -1.0160 C.ar    1  LIG1       -0.0612
     23 H           0.7983   -0.4377   -1.7007 H       1  LIG1        0.0618
     24 C           1.1335   -1.5594   -0.0901 C.ar    1  LIG1       -0.0617
     25 H           0.3332   -2.0320   -0.1340 H       1  LIG1        0.0618
     26 C           2.0253   -1.8318    0.9174 C.ar    1  LIG1       -0.0612
     27 H           1.8314   -2.4909    1.5447 H       1  LIG1        0.0618
     28 C           3.2222   -1.1217    1.0009 C.ar    1  LIG1       -0.0540
     29 H           3.8274   -1.3008    1.6831 H       1  LIG1        0.0624
     30 C           5.0341    1.4718    1.1261 C.2     1  LIG1       -0.0338
     31 H           5.8544    1.9089    1.1162 H       1  LIG1        0.0639
     32 C           4.1515    1.7429    2.2413 C.2     1  LIG1        0.0475
     33 H           3.3326    1.3082    2.3138 H       1  LIG1        0.0846
     34 C           5.4946    2.6613    6.0459 C.ar    1  LIG1        0.1099
     35 C           6.8124    3.0449    5.8893 C.ar    1  LIG1       -0.0348
     36 H           7.0255    3.8451    5.4669 H       1  LIG1        0.0637
     37 C           7.8124    2.2148    6.3747 C.ar    1  LIG1       -0.0570
     38 H           8.7002    2.4753    6.2800 H       1  LIG1        0.0621
     39 C           7.5303    1.0247    6.9870 C.ar    1  LIG1       -0.0503
     40 C           8.6499    0.1312    7.4863 C.3     1  LIG1       -0.0397
     41 H           9.4848    0.6013    7.4292 H       1  LIG1        0.0278
     42 H           8.6908   -0.6616    6.9479 H       1  LIG1        0.0278
     43 H           8.4804   -0.1113    8.4004 H       1  LIG1        0.0278
     44 C           6.2142    0.6666    7.1395 C.ar    1  LIG1       -0.0570
     45 H           6.0059   -0.1324    7.5676 H       1  LIG1        0.0621
     46 C           5.1942    1.4693    6.6715 C.ar    1  LIG1       -0.0348
     47 H           4.3085    1.2075    6.7765 H       1  LIG1        0.0637
@<TRIPOS>BOND
     1    12    11    1
     2    10     9    1
     3    11     9   ar
     4    11    13   ar
     5     9     7   ar
     6    14    13    1
     7    13    15   ar
     8     7     8    1
     9     7    17   ar
    10    23    22    1
    11    21    20    1
    12    15    17   ar
    13    15    16    1
    14    17    18    1
    15    22    20   ar
    16    22    24   ar
    17    20    19   ar
    18    25    24    1
    19    24    26   ar
    20    19    18    1
    21    19    28   ar
    22    18    30    2
    23    26    28   ar
    24    26    27    1
    25    28    29    1
    26    31    30    1
    27    30    32    1
    28    32    33    1
    29    32     4    2
    30     4     5    1
    31     5     6    1
    32     5     1    1
    33     2     1    2
    34     1    34    1
    35     1     3    2
    36    36    35    1
    37    35    34   ar
    38    35    37   ar
    39    34    46   ar
    40    38    37    1
    41    37    39   ar
    42    46    47    1
    43    46    44   ar
    44    42    40    1
    45    39    44   ar
    46    39    40    1
    47    44    45    1
    48    41    40    1
    49    40    43    1
