@<TRIPOS>MOLECULE
1-(2-Fluorophenyl)-6,7-dimethoxyisochroman
 38 40 0 0 0
SMALL
GASTEIGER

@<TRIPOS>ATOM
      1 O           3.3393    3.8796    5.2025 O.3     1  LIG1       -0.3669
      2 C           4.7346    3.6635    4.9852 C.3     1  LIG1        0.0529
      3 H           5.1385    4.4746    4.5854 H       1  LIG1        0.0563
      4 H           4.8603    2.9136    4.3501 H       1  LIG1        0.0563
      5 C           5.4264    3.3427    6.2948 C.3     1  LIG1       -0.0036
      6 H           5.1860    2.4254    6.5795 H       1  LIG1        0.0336
      7 H           6.4085    3.3778    6.1681 H       1  LIG1        0.0336
      8 C           5.0189    4.3275    7.3675 C.ar    1  LIG1       -0.0356
      9 C           5.7842    4.4207    8.5406 C.ar    1  LIG1       -0.0127
     10 H           6.5428    3.8581    8.6492 H       1  LIG1        0.0658
     11 C           5.4546    5.3170    9.5410 C.ar    1  LIG1        0.1618
     12 O           6.1477    5.4609   10.7203 O.3     1  LIG1       -0.4914
     13 C           7.0912    4.4196   11.0069 C.3     1  LIG1        0.0790
     14 H           6.6564    3.5473   10.9016 H       1  LIG1        0.0660
     15 H           7.4124    4.5143   11.9283 H       1  LIG1        0.0660
     16 H           7.8483    4.4850   10.3883 H       1  LIG1        0.0660
     17 C           4.3436    6.1658    9.3764 C.ar    1  LIG1        0.1618
     18 O           4.0941    7.0203   10.4172 O.3     1  LIG1       -0.4914
     19 C           3.0163    7.9450   10.2402 C.3     1  LIG1        0.0790
     20 H           3.1880    8.5007    9.4521 H       1  LIG1        0.0660
     21 H           2.9417    8.5164   11.0332 H       1  LIG1        0.0660
     22 H           2.1783    7.4505   10.1152 H       1  LIG1        0.0660
     23 C           3.5840    6.0643    8.2149 C.ar    1  LIG1       -0.0101
     24 H           2.8290    6.6273    8.0980 H       1  LIG1        0.0659
     25 C           3.9179    5.1496    7.2211 C.ar    1  LIG1       -0.0075
     26 C           3.1169    5.1067    5.9246 C.3     1  LIG1        0.1117
     27 H           3.4345    5.8586    5.3471 H       1  LIG1        0.0698
     28 C           1.6180    5.2422    6.0661 C.ar    1  LIG1        0.0207
     29 C           0.8518    4.3385    6.7933 C.ar    1  LIG1        0.1293
     30 F           1.4954    3.3589    7.4835 F       1  LIG1       -0.2051
     31 C          -0.5123    4.3762    6.8575 C.ar    1  LIG1       -0.0261
     32 H          -0.9947    3.7362    7.3692 H       1  LIG1        0.0646
     33 C          -1.1835    5.3793    6.1533 C.ar    1  LIG1       -0.0590
     34 H          -2.1314    5.4201    6.1698 H       1  LIG1        0.0618
     35 C          -0.4584    6.3191    5.4294 C.ar    1  LIG1       -0.0612
     36 H          -0.9126    7.0088    4.9589 H       1  LIG1        0.0618
     37 C           0.9185    6.2516    5.3899 C.ar    1  LIG1       -0.0530
     38 H           1.4032    6.9021    4.8947 H       1  LIG1        0.0622
@<TRIPOS>BOND
     1     4     2    1
     2     3     2    1
     3    38    37    1
     4    36    35    1
     5     2     1    1
     6     2     5    1
     7     1    26    1
     8    27    26    1
     9    37    35   ar
    10    37    28   ar
    11    35    33   ar
    12    26    28    1
    13    26    25    1
    14    28    29   ar
    15    33    34    1
    16    33    31   ar
    17     7     5    1
    18     5     6    1
    19     5     8    1
    20    29    31   ar
    21    29    30    1
    22    31    32    1
    23    25     8   ar
    24    25    23   ar
    25     8     9   ar
    26    24    23    1
    27    23    17   ar
    28     9    10    1
    29     9    11   ar
    30    17    11   ar
    31    17    18    1
    32    20    19    1
    33    11    12    1
    34    22    19    1
    35    19    18    1
    36    19    21    1
    37    16    13    1
    38    12    13    1
    39    14    13    1
    40    13    15    1
