@<TRIPOS>MOLECULE
(<i>E</i>)-<i>N</i>'-[1-(4-Hydroxyphenyl)ethylidene]-2-(quinolin-8- yloxy)acetohydrazide methanol solvate
 48 49 0 0 0
SMALL
GASTEIGER

@<TRIPOS>ATOM
      1 O           6.1638    6.7915    1.2946 O.3     1  LIG1       -0.4806
      2 O           3.8136    8.2095   -0.9398 O.2     1  LIG1       -0.2703
      3 O          -2.7030   11.9472    2.5318 O.3     1  LIG1       -0.5068
      4 H          -3.2086   11.6109    1.9816 H       1  LIG1        0.2921
      5 O           4.3829    6.7460    3.7536 O.3     1  LIG1       -0.3982
      6 H           5.1299    6.4234    3.6514 H       1  LIG1        0.2090
      7 N           6.8457    5.4875    3.5411 N.ar    1  LIG1       -0.2513
      8 N           3.8522    8.1562    1.3271 N.am    1  LIG1       -0.2039
      9 H           4.2913    7.9561    2.0387 H       1  LIG1        0.1773
     10 N           2.5865    8.7395    1.4092 N.2     1  LIG1       -0.1845
     11 C           7.1888    4.8335    4.6337 C.ar    1  LIG1        0.0284
     12 H           6.5770    4.8028    5.3333 H       1  LIG1        0.0830
     13 C           8.4149    4.1836    4.8060 C.ar    1  LIG1       -0.0430
     14 H           8.6018    3.7255    5.5939 H       1  LIG1        0.0633
     15 C           9.3231    4.2332    3.8057 C.ar    1  LIG1       -0.0510
     16 H          10.1438    3.8062    3.9040 H       1  LIG1        0.0625
     17 C           9.0314    4.9326    2.6130 C.ar    1  LIG1        0.0040
     18 C           9.9358    5.0316    1.5355 C.ar    1  LIG1       -0.0523
     19 H          10.7754    4.6362    1.5927 H       1  LIG1        0.0624
     20 C           9.5755    5.7056    0.4190 C.ar    1  LIG1       -0.0576
     21 H          10.1814    5.7763   -0.2826 H       1  LIG1        0.0619
     22 C           8.3097    6.2994    0.2927 C.ar    1  LIG1       -0.0178
     23 H           8.0804    6.7395   -0.4941 H       1  LIG1        0.0655
     24 C           7.4160    6.2345    1.3220 C.ar    1  LIG1        0.1470
     25 C           7.7562    5.5497    2.5208 C.ar    1  LIG1        0.1125
     26 C           5.7504    7.3491    0.0561 C.3     1  LIG1        0.1669
     27 H           5.7806    6.6609   -0.6284 H       1  LIG1        0.0795
     28 H           6.3698    8.0502   -0.1995 H       1  LIG1        0.0795
     29 C           4.3636    7.9172    0.1193 C.2     1  LIG1        0.2698
     30 C           2.3622    9.4588    2.4506 C.2     1  LIG1        0.0634
     31 C           3.3597    9.7878    3.5211 C.3     1  LIG1       -0.0203
     32 H           3.8740    9.0052    3.7306 H       1  LIG1        0.0293
     33 H           2.8977   10.0872    4.3079 H       1  LIG1        0.0293
     34 H           3.9457   10.4818    3.2104 H       1  LIG1        0.0293
     35 C           1.0062   10.0722    2.5158 C.ar    1  LIG1       -0.0023
     36 C           0.7665   11.2236    3.2344 C.ar    1  LIG1       -0.0494
     37 H           1.4539   11.5963    3.7376 H       1  LIG1        0.0625
     38 C          -0.4703   11.8370    3.2254 C.ar    1  LIG1       -0.0196
     39 H          -0.6027   12.6174    3.7135 H       1  LIG1        0.0654
     40 C          -1.5043   11.3018    2.5007 C.ar    1  LIG1        0.1169
     41 C          -1.2989   10.1447    1.7911 C.ar    1  LIG1       -0.0196
     42 H          -1.9959    9.7685    1.3030 H       1  LIG1        0.0654
     43 C          -0.0567    9.5392    1.8001 C.ar    1  LIG1       -0.0494
     44 H           0.0697    8.7562    1.3160 H       1  LIG1        0.0625
     45 C           3.4221    5.7751    3.5061 C.3     1  LIG1        0.0330
     46 H           3.4342    5.1252    4.2117 H       1  LIG1        0.0521
     47 H           3.6117    5.3427    2.6701 H       1  LIG1        0.0521
     48 H           2.5559    6.1862    3.4640 H       1  LIG1        0.0521
@<TRIPOS>BOND
     1     2    29    2
     2    27    26    1
     3    23    22    1
     4    21    20    1
     5    28    26    1
     6    26    29    1
     7    26     1    1
     8    29     8   am
     9    22    20   ar
    10    22    24   ar
    11    20    18   ar
    12     1    24    1
    13    42    41    1
    14    44    43    1
    15    24    25   ar
    16     8    10    1
    17     8     9    1
    18    10    30    2
    19    18    19    1
    20    18    17   ar
    21    41    43   ar
    22    41    40   ar
    23    43    35   ar
    24     4     3    1
    25    30    35    1
    26    30    31    1
    27    40     3    1
    28    40    38   ar
    29    35    36   ar
    30    25    17   ar
    31    25     7   ar
    32    17    15   ar
    33    47    45    1
    34    34    31    1
    35    38    36   ar
    36    38    39    1
    37    36    37    1
    38    48    45    1
    39    45     5    1
    40    45    46    1
    41    31    32    1
    42    31    33    1
    43     7    11   ar
    44     6     5    1
    45    15    16    1
    46    15    13   ar
    47    11    13   ar
    48    11    12    1
    49    13    14    1
