@<TRIPOS>MOLECULE
2-Bromo-4-chloro-6-[(<i>E</i>)-(2-chlorophenyl)iminomethyl]phenol
 26 27 0 0 0
SMALL
GASTEIGER

@<TRIPOS>ATOM
      1 BR          3.0306   10.6032    5.9922 Br      1  LIG1       -0.0465
      2 CL          3.1963    7.4440   10.5134 Cl      1  LIG1       -0.0835
      3 CL         -0.7763    6.9241    2.5344 Cl      1  LIG1       -0.0813
      4 N          -0.0187    6.1194    5.2213 N.2     1  LIG1       -0.2534
      5 O           1.2560    8.3628    5.0481 O.3     1  LIG1       -0.5050
      6 H           0.7683    7.7512    4.8023 H       1  LIG1        0.2922
      7 C           0.4324    5.9773    6.4097 C.2     1  LIG1        0.0390
      8 H           0.2036    5.2193    6.8962 H       1  LIG1        0.0837
      9 C           1.2922    6.9749    7.0155 C.ar    1  LIG1        0.0370
     10 C           1.6709    8.1267    6.2981 C.ar    1  LIG1        0.1394
     11 C           2.5150    9.0458    6.9194 C.ar    1  LIG1        0.0612
     12 C           2.9842    8.8343    8.2006 C.ar    1  LIG1       -0.0258
     13 H           3.5575    9.4494    8.5975 H       1  LIG1        0.0644
     14 C           2.5957    7.7049    8.8905 C.ar    1  LIG1        0.0429
     15 C           1.7630    6.7788    8.3134 C.ar    1  LIG1       -0.0312
     16 H           1.5118    6.0193    8.7888 H       1  LIG1        0.0640
     17 C          -0.8154    5.1492    4.5801 C.ar    1  LIG1        0.0821
     18 C          -1.2146    5.4168    3.2756 C.ar    1  LIG1        0.0663
     19 C          -1.9668    4.5145    2.5570 C.ar    1  LIG1       -0.0413
     20 H          -2.2249    4.7107    1.6848 H       1  LIG1        0.0633
     21 C          -2.3331    3.3193    3.1385 C.ar    1  LIG1       -0.0603
     22 H          -2.8372    2.7056    2.6565 H       1  LIG1        0.0618
     23 C          -1.9589    3.0335    4.4187 C.ar    1  LIG1       -0.0597
     24 H          -2.2097    2.2264    4.8078 H       1  LIG1        0.0618
     25 C          -1.2050    3.9484    5.1406 C.ar    1  LIG1       -0.0349
     26 H          -0.9573    3.7509    6.0140 H       1  LIG1        0.0639
@<TRIPOS>BOND
     1    20    19    1
     2     3    18    1
     3    19    21   ar
     4    19    18   ar
     5    22    21    1
     6    21    23   ar
     7    18    17   ar
     8    23    24    1
     9    23    25   ar
    10    17    25   ar
    11    17     4    1
    12     6     5    1
    13     5    10    1
    14    25    26    1
    15     4     7    2
    16     1    11    1
    17    10    11   ar
    18    10     9   ar
    19     7     8    1
    20     7     9    1
    21    11    12   ar
    22     9    15   ar
    23    12    13    1
    24    12    14   ar
    25    15    16    1
    26    15    14   ar
    27    14     2    1
