@<TRIPOS>MOLECULE
2-(Prop-2-enyl)-1,2-benzisothiazol-3(2<i>H</i>)-one 1,1-dioxide
 24 25 0 0 0
SMALL
GASTEIGER

@<TRIPOS>ATOM
      1 S           1.7661    1.7323    2.5786 S.O2    1  LIG1        0.0780
      2 O          -0.0810    4.5330    0.9615 O.2     1  LIG1       -0.2683
      3 O           3.1367    1.9644    2.8795 O.2     1  LIG1       -0.1497
      4 O           1.0535    0.8422    3.4340 O.2     1  LIG1       -0.1497
      5 N           0.9603    3.1797    2.4768 N.am    1  LIG1       -0.1639
      6 C           1.5231    1.3827    0.8882 C.ar    1  LIG1        0.1209
      7 C           0.8546    2.4234    0.2674 C.ar    1  LIG1        0.0650
      8 C           0.5744    2.3650   -1.0793 C.ar    1  LIG1       -0.0477
      9 H           0.1219    3.0556   -1.5061 H       1  LIG1        0.0626
     10 C           0.9871    1.2487   -1.7735 C.ar    1  LIG1       -0.0609
     11 H           0.8197    1.1933   -2.6865 H       1  LIG1        0.0618
     12 C           1.6430    0.2111   -1.1437 C.ar    1  LIG1       -0.0599
     13 H           1.9028   -0.5311   -1.6398 H       1  LIG1        0.0618
     14 C           1.9193    0.2509    0.2020 C.ar    1  LIG1       -0.0343
     15 H           2.3535   -0.4502    0.6298 H       1  LIG1        0.0637
     16 C           0.5047    3.5087    1.2120 C.2     1  LIG1        0.2678
     17 C           0.7259    4.0140    3.6608 C.3     1  LIG1        0.0559
     18 H           0.7754    4.9493    3.4093 H       1  LIG1        0.0527
     19 H           1.4199    3.8433    4.3163 H       1  LIG1        0.0527
     20 C          -0.6101    3.7344    4.2698 C.2     1  LIG1       -0.0722
     21 H          -0.7369    2.8898    4.6372 H       1  LIG1        0.0582
     22 C          -1.5750    4.5309    4.3302 C.2     1  LIG1       -0.1011
     23 H          -1.4945    5.3868    3.9757 H       1  LIG1        0.0532
     24 H          -2.3715    4.2671    4.7303 H       1  LIG1        0.0532
@<TRIPOS>BOND
     1    11    10    1
     2    10    12   ar
     3    10     8   ar
     4    13    12    1
     5     9     8    1
     6    12    14   ar
     7     8     7   ar
     8    14    15    1
     9    14     6   ar
    10     7     6   ar
    11     7    16    1
    12     6     1    1
    13     2    16    2
    14    16     5   am
    15     5     1    1
    16     5    17    1
    17     1     3    2
    18     1     4    2
    19    18    17    1
    20    17    20    1
    21    17    19    1
    22    23    22    1
    23    20    22    2
    24    20    21    1
    25    22    24    1
