@<TRIPOS>MOLECULE
4,6,7,9,10,12-Hexahydro-1,3- dithiolo[4,5-<i>f</i>][1,4,9]oxadithiacycloundecine-2-thione
 27 28 0 0 0
SMALL
GASTEIGER

@<TRIPOS>ATOM
      1 C          -1.0274    4.3979    4.4459 C.ar    1  LIG1        0.0938
      2 C          -2.2292    6.3168    3.1249 C.ar    1  LIG1        0.0116
      3 C          -3.3245    7.2707    2.7730 C.3     1  LIG1        0.0259
      4 H          -3.0910    7.7287    1.9500 H       1  LIG1        0.0430
      5 H          -3.3987    7.9386    3.4723 H       1  LIG1        0.0430
      6 C          -4.5889    5.2411    1.2750 C.3     1  LIG1        0.0175
      7 H          -3.8538    4.6843    1.5755 H       1  LIG1        0.0399
      8 H          -5.3668    4.6690    1.1866 H       1  LIG1        0.0399
      9 C          -4.2449    5.7734   -0.0830 C.3     1  LIG1        0.0567
     10 H          -4.2817    5.0533   -0.7318 H       1  LIG1        0.0568
     11 H          -4.8934    6.4458   -0.3411 H       1  LIG1        0.0568
     12 C          -2.1446    5.9355   -1.1595 C.3     1  LIG1        0.0567
     13 H          -2.6140    6.0981   -1.9924 H       1  LIG1        0.0568
     14 H          -1.9668    4.9843   -1.0928 H       1  LIG1        0.0568
     15 C          -0.8515    6.6934   -1.1514 C.3     1  LIG1        0.0175
     16 H          -1.0588    7.6395   -1.1090 H       1  LIG1        0.0399
     17 H          -0.4066    6.5347   -1.9987 H       1  LIG1        0.0399
     18 C          -0.3732    7.1920    1.6080 C.3     1  LIG1        0.0259
     19 H           0.3330    7.7109    2.0240 H       1  LIG1        0.0430
     20 H          -1.0525    7.8125    1.3021 H       1  LIG1        0.0430
     21 C          -0.9756    6.2863    2.6367 C.ar    1  LIG1        0.0116
     22 O          -2.9397    6.3459   -0.0794 O.3     1  LIG1       -0.3781
     23 S           0.0902    5.0848    3.3257 S.2     1  LIG1       -0.0774
     24 S          -0.6609    3.1911    5.4980 S.2     1  LIG1       -0.0365
     25 S          -2.5954    5.1111    4.3357 S.2     1  LIG1       -0.0774
     26 S          -4.9313    6.4573    2.5599 S.3     1  LIG1       -0.1533
     27 S           0.3146    6.3218    0.1641 S.3     1  LIG1       -0.1533
@<TRIPOS>BOND
     1    17    15    1
     2    13    12    1
     3    12    15    1
     4    12    14    1
     5    12    22    1
     6    15    16    1
     7    15    27    1
     8    10     9    1
     9    11     9    1
    10     9    22    1
    11     9     6    1
    12    27    18    1
    13     8     6    1
    14     6     7    1
    15     6    26    1
    16    20    18    1
    17    18    19    1
    18    18    21    1
    19     4     3    1
    20    26     3    1
    21    21     2   ar
    22    21    23   ar
    23     3     2    1
    24     3     5    1
    25     2    25   ar
    26    23     1   ar
    27    25     1   ar
    28     1    24    2
