@<TRIPOS>MOLECULE
4-Hydrazinopyridinium chloride
 16 15 0 0 0
SMALL
GASTEIGER

@<TRIPOS>ATOM
      1 CL          5.3968    1.6085    4.5794 Cl      1  LIG1        0.0000
      2 N           2.6064    1.6085   -1.0970 N.pl3   2  LIG2       -0.3411
      3 N           2.6902    1.6085    2.9958 N.pl3   2  LIG2       -0.2662
      4 N           1.5511    1.6085    3.8263 N.3     2  LIG2       -0.1614
      5 C           1.4435    1.6085   -0.4202 C.3     2  LIG2        0.0624
      6 H           0.6257    1.6085   -0.9036 H       2  LIG2        0.0564
      7 C           1.4130    1.6085    0.9468 C.2     2  LIG2       -0.0398
      8 H           0.5830    1.6085    1.4086 H       2  LIG2        0.0610
      9 C           2.6330    1.6085    1.6653 C.2     2  LIG2        0.0416
     10 C           3.8398    1.6085    0.9133 C.2     2  LIG2       -0.0263
     11 H           4.6792    1.6085    1.3585 H       2  LIG2        0.0649
     12 C           3.7870    1.6085   -0.4472 C.2     2  LIG2       -0.0083
     13 H           4.5954    1.6085   -0.9460 H       2  LIG2        0.0779
     14 H           2.5830    1.6085   -1.9814 H       2  LIG2        0.1462
     15 H           3.4714    1.6085    3.4155 H       2  LIG2        0.1676
     16 H           1.1110    0.8943    3.6768 H       2  LIG2        0.1654
@<TRIPOS>BOND
     1    14     2    1
     2     2    12    1
     3     2     5    1
     4    13    12    1
     5     6     5    1
     6    12    10    2
     7     5     7    1
     8    10    11    1
     9    10     9    1
    10     7     8    1
    11     7     9    2
    12     9     3    1
    13     3    15    1
    14     3     4    1
    15    16     4    1
