@<TRIPOS>MOLECULE
<i>N</i>,<i>N</i>'-Bis(3,4-dimethoxybenzylidene)butane-1,4-diamine
 28 28 0 0 0
SMALL
GASTEIGER

@<TRIPOS>ATOM
      1 O           3.1505   -1.1132    7.3230 O.3     1  LIG1       -0.4914
      2 O           4.8372    0.7333    7.8784 O.3     1  LIG1       -0.4915
      3 N           0.7107    0.5185    2.9919 N.2     1  LIG1       -0.2910
      4 C           2.3076    1.2818    4.6323 C.ar    1  LIG1       -0.0037
      5 C           2.2654    0.1160    5.4109 C.ar    1  LIG1       -0.0077
      6 C           3.1091   -0.0263    6.4890 C.ar    1  LIG1        0.1621
      7 C           4.0257    1.0002    6.8136 C.ar    1  LIG1        0.1615
      8 C           4.0481    2.1605    6.0664 C.ar    1  LIG1       -0.0157
      9 C           3.1808    2.2952    4.9819 C.ar    1  LIG1       -0.0495
     10 C           1.4630    1.4341    3.4362 C.2     1  LIG1        0.0294
     11 C          -0.0314    0.8047    1.7652 C.3     1  LIG1        0.0397
     12 C           0.4035   -0.1113    0.6365 C.3     1  LIG1       -0.0318
     13 C           2.3103   -2.2182    6.9921 C.3     1  LIG1        0.0790
     14 C           5.6878    1.7922    8.3208 C.3     1  LIG1        0.0790
     15 H           1.6466   -0.5843    5.1915 H       1  LIG1        0.0662
     16 H           4.6556    2.8691    6.2911 H       1  LIG1        0.0655
     17 H           3.1906    3.1065    4.4689 H       1  LIG1        0.0625
     18 H           1.4842    2.2724    2.9685 H       1  LIG1        0.0831
     19 H           0.1135    1.7187    1.5094 H       1  LIG1        0.0508
     20 H          -0.9710    0.6911    1.9257 H       1  LIG1        0.0508
     21 H           1.3355    0.0272    0.4530 H       1  LIG1        0.0283
     22 H           0.3159   -1.0259    0.9150 H       1  LIG1        0.0283
     23 H           2.4800   -2.9425    7.5992 H       1  LIG1        0.0660
     24 H           1.3903   -1.9527    7.0600 H       1  LIG1        0.0660
     25 H           2.4955   -2.5036    6.0942 H       1  LIG1        0.0660
     26 H           6.1765    1.5076    9.0965 H       1  LIG1        0.0660
     27 H           6.3037    2.0217    7.6210 H       1  LIG1        0.0660
     28 H           5.1549    2.5596    8.5422 H       1  LIG1        0.0660
@<TRIPOS>BOND
     1    21    12    1
     2    12    22    1
     3    12    11    1
     4    19    11    1
     5    11    20    1
     6    11     3    1
     7    18    10    1
     8     3    10    2
     9    10     4    1
    10    17     9    1
    11     4     9   ar
    12     4     5   ar
    13     9     8   ar
    14    15     5    1
    15     5     6   ar
    16     8    16    1
    17     8     7   ar
    18    25    13    1
    19     6     7   ar
    20     6     1    1
    21     7     2    1
    22    13    24    1
    23    13     1    1
    24    13    23    1
    25    27    14    1
    26     2    14    1
    27    14    28    1
    28    14    26    1
