@<TRIPOS>MOLECULE
2,2'-[(<i>E</i>,<i>E</i>)-1,1'-(2,2-Dimethylpropane-1,3- diyldinitrilo)diethylidyne]diphenol
 51 52 0 0 0
SMALL
GASTEIGER

@<TRIPOS>ATOM
      1 O           2.5785    6.6802    4.0311 O.3     1  LIG1       -0.5061
      2 O          -0.8408    1.2032    3.2139 O.3     1  LIG1       -0.5061
      3 N           2.9416    4.2164    4.3932 N.2     1  LIG1       -0.2872
      4 N           1.3638    0.9556    2.0057 N.2     1  LIG1       -0.2872
      5 C           3.1295    6.8711    5.2423 C.ar    1  LIG1        0.1257
      6 C           3.3103    8.1844    5.6883 C.ar    1  LIG1       -0.0195
      7 C           3.8739    8.4291    6.9239 C.ar    1  LIG1       -0.0583
      8 C           4.2575    7.3843    7.7390 C.ar    1  LIG1       -0.0609
      9 C           4.0815    6.0800    7.3098 C.ar    1  LIG1       -0.0494
     10 C           3.5269    5.7849    6.0570 C.ar    1  LIG1        0.0370
     11 C           3.3752    4.3894    5.5885 C.2     1  LIG1        0.0434
     12 C           3.7423    3.2750    6.5213 C.3     1  LIG1       -0.0221
     13 C           2.7933    2.8915    3.7928 C.3     1  LIG1        0.0468
     14 C           2.7841    2.9874    2.2584 C.3     1  LIG1        0.0040
     15 C           4.1321    3.5466    1.7839 C.3     1  LIG1       -0.0564
     16 C           1.6386    3.8761    1.7795 C.3     1  LIG1       -0.0564
     17 C           2.6436    1.5755    1.6655 C.3     1  LIG1        0.0468
     18 C           1.0568   -0.2173    1.5683 C.2     1  LIG1        0.0434
     19 C           1.9729   -1.0445    0.7054 C.3     1  LIG1       -0.0221
     20 C          -0.2626   -0.7700    1.9541 C.ar    1  LIG1        0.0370
     21 C          -0.6762   -2.0403    1.5475 C.ar    1  LIG1       -0.0494
     22 C          -1.8860   -2.5852    1.9393 C.ar    1  LIG1       -0.0609
     23 C          -2.7310   -1.8532    2.7648 C.ar    1  LIG1       -0.0583
     24 C          -2.3658   -0.5957    3.1821 C.ar    1  LIG1       -0.0195
     25 C          -1.1474   -0.0322    2.7828 C.ar    1  LIG1        0.1257
     26 H           2.6023    5.6699    3.9566 H       1  LIG1        0.2922
     27 H           3.0276    8.9039    5.0690 H       1  LIG1        0.0654
     28 H           3.9936    9.3451    7.2294 H       1  LIG1        0.0619
     29 H           4.6750    7.5578    8.6084 H       1  LIG1        0.0618
     30 H           4.3552    5.3519    7.8732 H       1  LIG1        0.0625
     31 H           3.3443    3.3919    7.4238 H       1  LIG1        0.0293
     32 H           4.6767    3.2536    6.6333 H       1  LIG1        0.0293
     33 H           3.4193    2.4228    6.2213 H       1  LIG1        0.0293
     34 H           3.5795    2.2731    4.0518 H       1  LIG1        0.0514
     35 H           1.9509    2.4542    4.0879 H       1  LIG1        0.0514
     36 H           4.1411    3.5621    0.7455 H       1  LIG1        0.0236
     37 H           4.9029    2.9762    2.1347 H       1  LIG1        0.0236
     38 H           4.2520    4.4397    2.1244 H       1  LIG1        0.0236
     39 H           1.7178    4.7671    2.0575 H       1  LIG1        0.0236
     40 H           1.5710    3.9396    0.8214 H       1  LIG1        0.0236
     41 H           0.6934    3.5097    2.0948 H       1  LIG1        0.0236
     42 H           3.3886    0.9584    2.0098 H       1  LIG1        0.0514
     43 H           2.7002    1.6590    0.6489 H       1  LIG1        0.0514
     44 H           0.0875    1.3861    2.8480 H       1  LIG1        0.2922
     45 H          -2.9537   -0.0682    3.7660 H       1  LIG1        0.0654
     46 H          -3.6043   -2.2315    3.0334 H       1  LIG1        0.0619
     47 H          -2.1442   -3.4957    1.6429 H       1  LIG1        0.0618
     48 H          -0.0915   -2.5658    0.9566 H       1  LIG1        0.0625
     49 H           2.8028   -0.6471    0.4983 H       1  LIG1        0.0293
     50 H           2.2271   -1.8487    1.1279 H       1  LIG1        0.0293
     51 H           1.5285   -1.3762   -0.0682 H       1  LIG1        0.0293
@<TRIPOS>BOND
     1    51    19    1
     2    49    19    1
     3    43    17    1
     4    19    50    1
     5    19    18    1
     6    36    15    1
     7    40    16    1
     8    48    21    1
     9    21    22   ar
    10    21    20   ar
    11    18    20    1
    12    18     4    2
    13    47    22    1
    14    17     4    1
    15    17    42    1
    16    17    14    1
    17    16    39    1
    18    16    41    1
    19    16    14    1
    20    15    38    1
    21    15    37    1
    22    15    14    1
    23    22    23   ar
    24    20    25   ar
    25    14    13    1
    26    23    46    1
    27    23    24   ar
    28    25    24   ar
    29    25     2    1
    30    44     2    1
    31    24    45    1
    32    13    34    1
    33    13    35    1
    34    13     3    1
    35    26     1    1
    36     1     5    1
    37     3    11    2
    38    27     6    1
    39     5     6   ar
    40     5    10   ar
    41    11    10    1
    42    11    12    1
    43     6     7   ar
    44    10     9   ar
    45    33    12    1
    46    12    32    1
    47    12    31    1
    48     7    28    1
    49     7     8   ar
    50     9     8   ar
    51     9    30    1
    52     8    29    1
