@<TRIPOS>MOLECULE
2-(<i>o</i>-Tolyloxy)pyrimidine
 48 50 0 0 0
SMALL
GASTEIGER

@<TRIPOS>ATOM
      1 O           0.6871    8.9392   10.1826 O.3     1  LIG1       -0.4234
      2 O           2.6041   10.2094   16.9872 O.3     2  LIG2       -0.4234
      3 N           2.7853    9.8321   10.5137 N.ar    1  LIG1       -0.2030
      4 N           2.4228    7.6154    9.7142 N.ar    1  LIG1       -0.2030
      5 N           0.5023    9.3792   16.5625 N.ar    2  LIG2       -0.2030
      6 N           0.8760   11.5466   17.4685 N.ar    2  LIG2       -0.2030
      7 C           2.0423    8.8107   10.1469 C.ar    1  LIG1        0.3233
      8 C           4.1035    9.6231   10.4294 C.ar    1  LIG1        0.0344
      9 H           4.6930   10.3268   10.6741 H       1  LIG1        0.0832
     10 C           4.6419    8.4285   10.0028 C.ar    1  LIG1       -0.0252
     11 H           5.5804    8.2916    9.9485 H       1  LIG1        0.0648
     12 C           3.7418    7.4453    9.6599 C.ar    1  LIG1        0.0344
     13 H           4.0787    6.6046    9.3713 H       1  LIG1        0.0832
     14 C           0.1451   10.0889   10.7875 C.ar    1  LIG1        0.1348
     15 C          -0.1263   11.1891   10.0015 C.ar    1  LIG1       -0.0190
     16 H           0.1263   11.2010    9.0868 H       1  LIG1        0.0654
     17 C          -0.7738   12.2777   10.5661 C.ar    1  LIG1       -0.0583
     18 H          -0.9708   13.0442   10.0400 H       1  LIG1        0.0619
     19 C          -1.1280   12.2382   11.8963 C.ar    1  LIG1       -0.0613
     20 H          -1.5769   12.9789   12.2878 H       1  LIG1        0.0618
     21 C          -0.8354   11.1242   12.6709 C.ar    1  LIG1       -0.0554
     22 H          -1.0791   11.1191   13.5885 H       1  LIG1        0.0621
     23 C          -0.1918   10.0124   12.1297 C.ar    1  LIG1       -0.0081
     24 C           0.0993    8.7716   12.9261 C.3     1  LIG1       -0.0362
     25 H           1.0678    8.6244   12.9605 H       1  LIG1        0.0279
     26 H          -0.3324    8.0011   12.5012 H       1  LIG1        0.0279
     27 H          -0.2466    8.8779   13.8364 H       1  LIG1        0.0279
     28 C           1.2535   10.3708   16.9952 C.ar    2  LIG2        0.3233
     29 C          -0.8196    9.6173   16.5946 C.ar    2  LIG2        0.0344
     30 H          -1.4130    8.9367   16.2977 H       2  LIG2        0.0832
     31 C          -1.3453   10.8012   17.0370 C.ar    2  LIG2       -0.0252
     32 H          -2.2815   10.9629   17.0374 H       2  LIG2        0.0648
     33 C          -0.4482   11.7432   17.4805 C.ar    2  LIG2        0.0344
     34 H          -0.7813   12.5693   17.8097 H       2  LIG2        0.0832
     35 C           3.1342    9.1268   16.2572 C.ar    2  LIG2        0.1348
     36 C           3.4410    7.9656   16.9275 C.ar    2  LIG2       -0.0190
     37 H           3.2267    7.8693   17.8484 H       2  LIG2        0.0654
     38 C           4.0674    6.9390   16.2416 C.ar    2  LIG2       -0.0583
     39 H           4.2862    6.1298   16.6879 H       2  LIG2        0.0619
     40 C           4.3712    7.1000   14.9032 C.ar    2  LIG2       -0.0613
     41 H           4.8036    6.3986   14.4299 H       2  LIG2        0.0618
     42 C           4.0509    8.2699   14.2545 C.ar    2  LIG2       -0.0554
     43 H           4.2584    8.3582   13.3324 H       2  LIG2        0.0621
     44 C           3.4305    9.3292   14.9150 C.ar    2  LIG2       -0.0081
     45 C           3.1034   10.6353   14.2403 C.3     2  LIG2       -0.0362
     46 H           3.5892   11.3623   14.6839 H       2  LIG2        0.0279
     47 H           2.1394   10.8017   14.2998 H       2  LIG2        0.0279
     48 H           3.3696   10.5918   13.2979 H       2  LIG2        0.0279
@<TRIPOS>BOND
     1    16    15    1
     2    13    12    1
     3    12     4   ar
     4    12    10   ar
     5     4     7   ar
     6    11    10    1
     7    15    17   ar
     8    15    14   ar
     9    10     8   ar
    10    18    17    1
    11     7     1    1
    12     7     3   ar
    13     1    14    1
    14     8     3   ar
    15     8     9    1
    16    17    19   ar
    17    14    23   ar
    18    19    20    1
    19    19    21   ar
    20    23    21   ar
    21    23    24    1
    22    26    24    1
    23    21    22    1
    24    24    25    1
    25    24    27    1
    26    48    45    1
    27    43    42    1
    28    45    47    1
    29    45    46    1
    30    45    44    1
    31    42    40   ar
    32    42    44   ar
    33    41    40    1
    34    40    38   ar
    35    44    35   ar
    36    38    39    1
    37    38    36   ar
    38    35    36   ar
    39    35     2    1
    40    30    29    1
    41     5    29   ar
    42     5    28   ar
    43    29    31   ar
    44    36    37    1
    45     2    28    1
    46    28     6   ar
    47    31    32    1
    48    31    33   ar
    49     6    33   ar
    50    33    34    1
