@<TRIPOS>MOLECULE
?
 31 32 0 0 0
SMALL
GASTEIGER

@<TRIPOS>ATOM
      1 CL         -4.9204    2.5794   14.5030 Cl      1  LIG1       -0.0797
      2 CL         -4.3570    5.9472   18.6383 Cl      1  LIG1       -0.0835
      3 N          -1.9836    6.7386   12.8679 N.2     1  LIG1       -0.1873
      4 N          -1.2731    7.6605   12.1393 N.am    1  LIG1       -0.2030
      5 O          -3.3830    4.5351   13.0443 O.3     1  LIG1       -0.5047
      6 H          -2.8818    5.0730   12.6815 H       1  LIG1        0.2922
      7 O          -1.1206    6.2060   10.4325 O.2     1  LIG1       -0.2685
      8 O           2.0876   10.8369    7.6757 O.3     1  LIG1       -0.5068
      9 H           2.4607   11.4233    8.1105 H       1  LIG1        0.2921
     10 C          -3.1364    6.1283   14.8465 C.ar    1  LIG1        0.0388
     11 C          -3.6052    4.9156   14.3183 C.ar    1  LIG1        0.1438
     12 C          -4.3357    4.0711   15.1505 C.ar    1  LIG1        0.0843
     13 C          -4.5768    4.3794   16.4676 C.ar    1  LIG1       -0.0214
     14 H          -5.0599    3.7983   17.0100 H       1  LIG1        0.0648
     15 C          -4.0878    5.5694   16.9695 C.ar    1  LIG1        0.0432
     16 C          -3.3864    6.4422   16.1767 C.ar    1  LIG1       -0.0311
     17 H          -3.0777    7.2444   16.5302 H       1  LIG1        0.0640
     18 C          -2.3684    7.0623   14.0383 C.2     1  LIG1        0.0564
     19 H          -2.1569    7.9014   14.3787 H       1  LIG1        0.0852
     20 C          -0.8765    7.3190   10.8908 C.2     1  LIG1        0.2633
     21 C          -0.1394    8.3369   10.1123 C.ar    1  LIG1        0.0386
     22 C           0.0326    8.0738    8.7540 C.ar    1  LIG1       -0.0461
     23 H          -0.3539    7.3148    8.3799 H       1  LIG1        0.0626
     24 C           0.7684    8.9255    7.9615 C.ar    1  LIG1       -0.0195
     25 H           0.8729    8.7426    7.0559 H       1  LIG1        0.0654
     26 C           1.3520   10.0506    8.5108 C.ar    1  LIG1        0.1169
     27 C           1.1769   10.3409    9.8559 C.ar    1  LIG1       -0.0195
     28 H           1.5582   11.1064   10.2234 H       1  LIG1        0.0654
     29 C           0.4333    9.4854   10.6473 C.ar    1  LIG1       -0.0461
     30 H           0.3141    9.6813   11.5487 H       1  LIG1        0.0626
     31 H          -1.0630    8.4419   12.5288 H       1  LIG1        0.1776
@<TRIPOS>BOND
     1    25    24    1
     2     8     9    1
     3     8    26    1
     4    24    26   ar
     5    24    22   ar
     6    23    22    1
     7    26    27   ar
     8    22    21   ar
     9    27    28    1
    10    27    29   ar
    11    21    29   ar
    12    21    20    1
    13     7    20    2
    14    29    30    1
    15    20     4   am
    16     4    31    1
    17     4     3    1
    18     6     5    1
    19     3    18    2
    20     5    11    1
    21    18    19    1
    22    18    10    1
    23    11    10   ar
    24    11    12   ar
    25     1    12    1
    26    10    16   ar
    27    12    13   ar
    28    16    17    1
    29    16    15   ar
    30    13    15   ar
    31    13    14    1
    32    15     2    1
