@<TRIPOS>MOLECULE
(1<i>R</i>,3<i>S</i>)-Methyl 3-[(<i>S</i>)-2- (hydroxydiphenylmethyl)pyrrolidin-1-ylmethyl]-2,2- dimethylcyclopropanecarboxylate
 180 189 0 0 0
SMALL
GASTEIGER

@<TRIPOS>ATOM
      1 O          21.4147   12.7613    0.2369 O.3     1  LIG1       -0.3777
      2 H          21.1523   12.8518   -0.5567 H       1  LIG1        0.2111
      3 O          30.4456    9.8201   -0.0196 O.3     2  LIG2       -0.3777
      4 H          30.7264    9.9531    0.7608 H       2  LIG2        0.2111
      5 O          28.8596   15.4820   10.1866 O.3     3  LIG3       -0.3777
      6 H          29.2666   15.7398   10.8939 H       3  LIG3        0.2111
      7 O          31.3498   20.9142   13.0170 O.2     3  LIG3       -0.2505
      8 O          19.5926   18.2220   -2.9942 O.2     1  LIG1       -0.2505
      9 O          32.6502   15.0165    3.4112 O.2     2  LIG2       -0.2505
     10 O          17.6135   17.5060   -3.7146 O.3     1  LIG1       -0.4677
     11 O          34.2248   13.5508    3.8860 O.3     2  LIG2       -0.4677
     12 O          33.2397   20.0843   13.8455 O.3     3  LIG3       -0.4677
     13 N          31.2247   12.2020    0.9257 N.3     2  LIG2       -0.2957
     14 N          20.5595   15.0668   -0.7499 N.3     1  LIG1       -0.2957
     15 N          29.9776   17.6448   11.3120 N.3     3  LIG3       -0.2957
     16 C          29.6248   10.9051   -0.4170 C.3     2  LIG2        0.1312
     17 C          22.2540   13.8478    0.5840 C.3     1  LIG1        0.1312
     18 C          28.1828   16.7052    9.9126 C.3     3  LIG3        0.1312
     19 C          23.4605   13.9100   -0.3646 C.ar    1  LIG1       -0.0102
     20 C          27.0243   16.9030   10.9125 C.ar    3  LIG3       -0.0102
     21 C          28.4252   11.0441    0.5556 C.ar    2  LIG2       -0.0102
     22 C          26.2544   18.0559   10.9005 C.ar    3  LIG3       -0.0555
     23 H          26.4372   18.7325   10.2586 H       3  LIG3        0.0621
     24 C          28.1616   10.0339    1.4791 C.ar    2  LIG2       -0.0555
     25 H          28.7075    9.2563    1.4933 H       2  LIG2        0.0621
     26 C          24.2717   15.0393   -0.4694 C.ar    1  LIG1       -0.0555
     27 H          24.1023   15.7912    0.0851 H       1  LIG1        0.0621
     28 C          25.2216   18.2396   11.8130 C.ar    3  LIG3       -0.0614
     29 H          24.7012   19.0339   11.7846 H       3  LIG3        0.0618
     30 C          25.3330   15.0803   -1.3787 C.ar    1  LIG1       -0.0614
     31 H          25.8792   15.8568   -1.4343 H       1  LIG1        0.0618
     32 C          27.1117   10.1499    2.3764 C.ar    2  LIG2       -0.0614
     33 H          26.9497    9.4531    3.0007 H       2  LIG2        0.0618
     34 C          25.5879   13.9935   -2.1962 C.ar    1  LIG1       -0.0617
     35 H          26.2953   14.0290   -2.8315 H       1  LIG1        0.0618
     36 C          24.9526   17.2751   12.7561 C.ar    3  LIG3       -0.0617
     37 H          24.2509   17.4010   13.3849 H       3  LIG3        0.0618
     38 C          26.2953   11.2686    2.3774 C.ar    2  LIG2       -0.0617
     39 H          25.5843   11.3483    3.0029 H       2  LIG2        0.0618
     40 C          26.5328   12.2685    1.4485 C.ar    2  LIG2       -0.0614
     41 H          25.9727   13.0344    1.4234 H       2  LIG2        0.0618
     42 C          24.8105   12.8588   -2.0849 C.ar    1  LIG1       -0.0614
     43 H          24.9941   12.1054   -2.6340 H       1  LIG1        0.0618
     44 C          25.7065   16.1245   12.7791 C.ar    3  LIG3       -0.0614
     45 H          25.5236   15.4544   13.4264 H       3  LIG3        0.0618
     46 C          26.7396   15.9377   11.8589 C.ar    3  LIG3       -0.0555
     47 H          27.2514   15.1388   11.8840 H       3  LIG3        0.0621
     48 C          27.5880   12.1568    0.5534 C.ar    2  LIG2       -0.0555
     49 H          27.7432   12.8535   -0.0742 H       2  LIG2        0.0621
     50 C          23.7623   12.8151   -1.1745 C.ar    1  LIG1       -0.0555
     51 H          23.2398   12.0238   -1.1014 H       1  LIG1        0.0621
     52 C          27.6327   16.6138    8.4837 C.ar    3  LIG3       -0.0102
     53 C          22.7023   13.6340    2.0238 C.ar    1  LIG1       -0.0102
     54 C          29.1378   10.6188   -1.8317 C.ar    2  LIG2       -0.0102
     55 C          28.3470   11.5238   -2.5292 C.ar    2  LIG2       -0.0555
     56 H          28.0818   12.3341   -2.1122 H       2  LIG2        0.0621
     57 C          23.5295   14.5484    2.6744 C.ar    1  LIG1       -0.0555
     58 H          23.8613   15.3019    2.1984 H       1  LIG1        0.0621
     59 C          27.4909   15.3870    7.8659 C.ar    3  LIG3       -0.0555
     60 H          27.7237   14.5910    8.3276 H       3  LIG3        0.0621
     61 C          23.8778   14.3747    4.0072 C.ar    1  LIG1       -0.0614
     62 H          24.4481   15.0023    4.4329 H       1  LIG1        0.0618
     63 C          27.0056   15.3232    6.5549 C.ar    3  LIG3       -0.0614
     64 H          26.9092   14.4775    6.1336 H       3  LIG3        0.0618
     65 C          27.9431   11.2561   -3.8249 C.ar    2  LIG2       -0.0614
     66 H          27.3959   11.8837   -4.2812 H       2  LIG2        0.0618
     67 C          28.3175   10.1038   -4.4634 C.ar    2  LIG2       -0.0617
     68 H          28.0436    9.9353   -5.3574 H       2  LIG2        0.0618
     69 C          23.3952   13.2914    4.7167 C.ar    1  LIG1       -0.0617
     70 H          23.6171   13.1815    5.6336 H       1  LIG1        0.0618
     71 C          26.6687   16.4543    5.8694 C.ar    3  LIG3       -0.0617
     72 H          26.3446   16.3976    4.9787 H       3  LIG3        0.0618
     73 C          26.8034   17.6758    6.4774 C.ar    3  LIG3       -0.0614
     74 H          26.5682   18.4683    6.0080 H       3  LIG3        0.0618
     75 C          29.0987    9.1889   -3.7834 C.ar    2  LIG2       -0.0614
     76 H          29.3587    8.3787   -4.2047 H       2  LIG2        0.0618
     77 C          22.5915   12.3784    4.0847 C.ar    1  LIG1       -0.0614
     78 H          22.2664   11.6249    4.5650 H       1  LIG1        0.0618
     79 C          29.5056    9.4574   -2.4833 C.ar    2  LIG2       -0.0555
     80 H          30.0508    8.8255   -2.0303 H       2  LIG2        0.0621
     81 C          22.2481   12.5445    2.7464 C.ar    1  LIG1       -0.0555
     82 H          21.6946   11.8997    2.3218 H       1  LIG1        0.0621
     83 C          27.2819   17.7556    7.7797 C.ar    3  LIG3       -0.0555
     84 H          27.3699   18.6066    8.1945 H       3  LIG3        0.0621
     85 C          21.3844   15.1425    0.4737 C.3     1  LIG1        0.0475
     86 H          21.9743   15.9490    0.4388 H       1  LIG1        0.0498
     87 C          30.5229   12.1887   -0.3711 C.3     2  LIG2        0.0475
     88 H          29.9602   13.0095   -0.4705 H       2  LIG2        0.0498
     89 C          29.2467   17.8320   10.0327 C.3     3  LIG3        0.0475
     90 H          28.8039   18.7271   10.0163 H       3  LIG3        0.0498
     91 C          31.6537   12.1816   -1.4212 C.3     2  LIG2       -0.0329
     92 H          31.4979   11.4760   -2.0980 H       2  LIG2        0.0282
     93 H          31.7119   13.0574   -1.8797 H       2  LIG2        0.0282
     94 C          30.3288   17.7556    8.9389 C.3     3  LIG3       -0.0329
     95 H          30.0613   17.1244    8.2250 H       3  LIG3        0.0282
     96 H          30.4818   18.6474    8.5350 H       3  LIG3        0.0282
     97 C          20.3637   15.2868    1.6068 C.3     1  LIG1       -0.0329
     98 H          20.0405   14.4013    1.9113 H       1  LIG1        0.0282
     99 H          20.7561   15.7699    2.3785 H       1  LIG1        0.0282
    100 C          32.9348   11.8997   -0.6244 C.3     2  LIG2       -0.0387
    101 H          33.0946   10.9264   -0.5316 H       2  LIG2        0.0278
    102 H          33.7230   12.3217   -1.0479 H       2  LIG2        0.0278
    103 C          19.2490   16.0802    0.9813 C.3     1  LIG1       -0.0387
    104 H          19.4563   17.0500    0.9813 H       1  LIG1        0.0278
    105 H          18.3926   15.9313    1.4551 H       1  LIG1        0.0278
    106 C          31.5936   17.2610    9.6550 C.3     3  LIG3       -0.0387
    107 H          31.6257   16.2717    9.6954 H       3  LIG3        0.0278
    108 H          32.4154   17.5996    9.2194 H       3  LIG3        0.0278
    109 C          19.1971   15.5359   -0.4224 C.3     1  LIG1       -0.0006
    110 H          18.5503   14.7878   -0.4770 H       1  LIG1        0.0427
    111 H          18.9160   16.2433   -1.0556 H       1  LIG1        0.0427
    112 C          32.6244   12.5291    0.6986 C.3     2  LIG2       -0.0006
    113 H          33.1957   12.1515    1.4136 H       2  LIG2        0.0427
    114 H          32.7576   13.5095    0.6637 H       2  LIG2        0.0427
    115 C          31.3994   17.8726   11.0391 C.3     3  LIG3       -0.0006
    116 H          31.9673   17.4205   11.7115 H       3  LIG3        0.0427
    117 H          31.6099   18.8406   11.0336 H       3  LIG3        0.0427
    118 C          29.4721   18.4761   12.4134 C.3     3  LIG3        0.0034
    119 H          28.4958   18.3495   12.5007 H       3  LIG3        0.0430
    120 H          29.6426   19.4310   12.2114 H       3  LIG3        0.0430
    121 C          30.6049   12.9794    2.0041 C.3     2  LIG2        0.0034
    122 H          29.6221   13.0007    1.8753 H       2  LIG2        0.0430
    123 H          30.9392   13.9102    1.9747 H       2  LIG2        0.0430
    124 C          21.1365   15.6841   -1.9474 C.3     1  LIG1        0.0034
    125 H          22.0967   15.4526   -2.0074 H       1  LIG1        0.0430
    126 H          21.0618   16.6688   -1.8797 H       1  LIG1        0.0430
    127 C          30.1460   18.1084   13.7091 C.3     3  LIG3       -0.0089
    128 H          30.2031   17.1227   13.8641 H       3  LIG3        0.0327
    129 C          30.9239   12.3713    3.3479 C.3     2  LIG2       -0.0089
    130 H          30.7823   11.3820    3.3806 H       2  LIG2        0.0327
    131 C          20.4282   15.2111   -3.1852 C.3     1  LIG1       -0.0089
    132 H          20.2492   14.2275   -3.1798 H       1  LIG1        0.0327
    133 C          19.3489   16.0128   -3.9275 C.3     1  LIG1        0.0663
    134 H          18.6109   15.4508   -4.3052 H       1  LIG1        0.0422
    135 C          31.3182   18.8902   14.3127 C.3     3  LIG3        0.0663
    136 H          31.9865   18.3141   14.7876 H       3  LIG3        0.0422
    137 C          32.0606   12.8500    4.2506 C.3     2  LIG2        0.0663
    138 H          32.5185   12.1231    4.7614 H       2  LIG2        0.0422
    139 C          30.5857   13.0574    4.6217 C.3     2  LIG2       -0.0169
    140 C          20.7181   15.7398   -4.5453 C.3     1  LIG1       -0.0169
    141 C          29.9408   18.8956   14.9600 C.3     3  LIG3       -0.0169
    142 C          29.0772   20.1366   14.9164 C.3     3  LIG3       -0.0587
    143 H          28.2323   19.9629   15.3792 H       3  LIG3        0.0235
    144 H          28.8950   20.3759   13.9831 H       3  LIG3        0.0235
    145 H          29.5448   20.8759   15.3574 H       3  LIG3        0.0235
    146 C          30.0853   12.1444    5.7319 C.3     2  LIG2       -0.0587
    147 H          29.1411   12.3358    5.9120 H       2  LIG2        0.0235
    148 H          30.6127   12.3004    6.5440 H       2  LIG2        0.0235
    149 H          30.1820   11.2100    5.4535 H       2  LIG2        0.0235
    150 C          21.7221   16.8567   -4.6992 C.3     1  LIG1       -0.0587
    151 H          22.5370   16.5092   -5.1173 H       1  LIG1        0.0235
    152 H          21.9392   17.2255   -3.8161 H       1  LIG1        0.0235
    153 H          21.3407   17.5623   -5.2625 H       1  LIG1        0.0235
    154 C          29.9481   14.4190    4.5977 C.3     2  LIG2       -0.0587
    155 H          29.0067   14.3445    4.8651 H       2  LIG2        0.0235
    156 H          30.0008   14.7895    3.6917 H       2  LIG2        0.0235
    157 H          30.4180   15.0111    5.2210 H       2  LIG2        0.0235
    158 C          29.8432   18.1102   16.2503 C.3     3  LIG3       -0.0587
    159 H          28.9303   18.1687   16.6007 H       3  LIG3        0.0235
    160 H          30.4698   18.4807   16.9074 H       3  LIG3        0.0235
    161 H          30.0665   17.1705   16.0789 H       3  LIG3        0.0235
    162 C          20.6885   14.7594   -5.6969 C.3     1  LIG1       -0.0587
    163 H          21.5949   14.6371   -6.0462 H       1  LIG1        0.0235
    164 H          20.1079   15.1069   -6.4075 H       1  LIG1        0.0235
    165 H          20.3391   13.8978   -5.3836 H       1  LIG1        0.0235
    166 C          32.9402   13.9424    3.8216 C.2     2  LIG2        0.3108
    167 C          18.9223   17.3549   -3.5094 C.2     1  LIG1        0.3108
    168 C          31.9086   20.0621   13.6534 C.2     3  LIG3        0.3108
    169 C          35.1809   14.5360    3.4614 C.3     2  LIG2        0.0817
    170 H          36.0856   14.1708    3.5433 H       2  LIG2        0.0661
    171 H          35.1009   15.3356    4.0235 H       2  LIG2        0.0661
    172 H          35.0094   14.7753    2.5259 H       2  LIG2        0.0661
    173 C          33.9371   21.1826   13.2288 C.3     3  LIG3        0.0817
    174 H          34.8947   21.1188   13.4318 H       3  LIG3        0.0661
    175 H          33.5867   22.0301   13.5759 H       3  LIG3        0.0661
    176 H          33.8081   21.1489   12.2584 H       3  LIG3        0.0661
    177 C          17.0581   18.7768   -3.3151 C.3     1  LIG1        0.0817
    178 H          16.0962   18.7856   -3.5018 H       1  LIG1        0.0661
    179 H          17.4966   19.4966   -3.8172 H       1  LIG1        0.0661
    180 H          17.2073   18.9097   -2.3556 H       1  LIG1        0.0661
@<TRIPOS>BOND
     1   164   162    1
     2   163   162    1
     3   162   165    1
     4   162   140    1
     5    68    67    1
     6   153   150    1
     7   151   150    1
     8   150   140    1
     9   150   152    1
    10   140   133    1
    11   140   131    1
    12    67    65   ar
    13    67    75   ar
    14   134   133    1
    15    66    65    1
    16    76    75    1
    17   133   167    1
    18   133   131    1
    19    65    55   ar
    20   179   177    1
    21    75    79   ar
    22    10   167    1
    23    10   177    1
    24   167     8    2
    25   178   177    1
    26   177   180    1
    27   131   132    1
    28   131   124    1
    29    35    34    1
    30    43    42    1
    31    55    56    1
    32    55    54   ar
    33    79    80    1
    34    79    54   ar
    35    34    42   ar
    36    34    30   ar
    37    92    91    1
    38    42    50   ar
    39   125   124    1
    40   124   126    1
    41   124    14    1
    42    93    91    1
    43    54    16    1
    44    31    30    1
    45    91   100    1
    46    91    87    1
    47    30    26   ar
    48    50    51    1
    49    50    19   ar
    50   111   109    1
    51   102   100    1
    52    14   109    1
    53    14    85    1
    54   100   101    1
    55   100   112    1
    56     2     1    1
    57   110   109    1
    58    88    87    1
    59    26    19   ar
    60    26    27    1
    61   109   103    1
    62    16    87    1
    63    16     3    1
    64    16    21    1
    65    87    13    1
    66    19    17    1
    67    49    48    1
    68     3     4    1
    69     1    17    1
    70    86    85    1
    71    85    17    1
    72    85    97    1
    73    48    21   ar
    74    48    40   ar
    75    21    24   ar
    76    17    53    1
    77   114   112    1
    78   112    13    1
    79   112   113    1
    80    13   121    1
    81   104   103    1
    82   103   105    1
    83   103    97    1
    84    41    40    1
    85    40    38   ar
    86    24    25    1
    87    24    32   ar
    88    97    98    1
    89    97    99    1
    90   122   121    1
    91   123   121    1
    92   121   129    1
    93    53    57   ar
    94    53    81   ar
    95    58    57    1
    96    82    81    1
    97    32    38   ar
    98    32    33    1
    99    38    39    1
   100   172   169    1
   101    57    61   ar
   102    81    77   ar
   103   129   130    1
   104   129   137    1
   105   129   139    1
   106     9   166    2
   107   169   170    1
   108   169    11    1
   109   169   171    1
   110   156   154    1
   111   166    11    1
   112   166   137    1
   113    61    62    1
   114    61    69   ar
   115    77    78    1
   116    77    69   ar
   117   137   139    1
   118   137   138    1
   119   154   139    1
   120   154   155    1
   121   154   157    1
   122   139   146    1
   123    69    70    1
   124    72    71    1
   125   149   146    1
   126   146   147    1
   127   146   148    1
   128    71    73   ar
   129    71    63   ar
   130    74    73    1
   131    64    63    1
   132    73    83   ar
   133    63    59   ar
   134    83    84    1
   135    83    52   ar
   136    59    60    1
   137    59    52   ar
   138    95    94    1
   139    52    18    1
   140    96    94    1
   141    94   106    1
   142    94    89    1
   143   108   106    1
   144   106   107    1
   145   106   115    1
   146    18    89    1
   147    18     5    1
   148    18    20    1
   149    90    89    1
   150    89    15    1
   151     5     6    1
   152    23    22    1
   153    22    20   ar
   154    22    28   ar
   155    20    46   ar
   156   117   115    1
   157   115    15    1
   158   115   116    1
   159    15   118    1
   160    29    28    1
   161    28    36   ar
   162    46    47    1
   163    46    44   ar
   164   120   118    1
   165   176   173    1
   166   118   119    1
   167   118   127    1
   168    36    44   ar
   169    36    37    1
   170    44    45    1
   171     7   168    2
   172   173   174    1
   173   173   175    1
   174   173    12    1
   175   168    12    1
   176   168   135    1
   177   127   128    1
   178   127   135    1
   179   127   141    1
   180   144   142    1
   181   135   136    1
   182   135   141    1
   183   142   141    1
   184   142   145    1
   185   142   143    1
   186   141   158    1
   187   161   158    1
   188   158   159    1
   189   158   160    1
