@<TRIPOS>MOLECULE
(1<i>RS</i>)-2-carbamoyl-1-carboxyethanaminium nitrate
 22 20 0 0 0
SMALL
GASTEIGER

@<TRIPOS>ATOM
      1 O           0.8587   10.0049    6.3149 O.3     1  ASN1       -0.4767
      2 H           1.0641   10.5602    6.9179 H       1  ASN1        0.2953
      3 OXT        -0.6841    9.2408    7.7702 O.2     1  ASN1       -0.2446
      4 OD1         1.4632    6.9150    7.2197 O.2     1  ASN1       -0.2758
      5 N          -1.3127    7.1191    6.1986 N.4     1  ASN1        0.2291
      6 H1         -1.9459    7.4472    6.7455 H       1  ASN1        0.2003
      7 H2         -0.8549    6.5229    6.7069 H       1  ASN1        0.2003
      8 H3         -1.6775    6.6516    5.5181 H       1  ASN1        0.2003
      9 ND2         2.8500    6.3592    5.5217 N.am    1  ASN1       -0.3291
     10 HD21        3.0126    6.3749    4.6873 H       1  ASN1        0.1449
     11 HD22        3.3549    5.8609    6.0648 H       1  ASN1        0.1449
     12 C          -0.0875    9.1887    6.7104 C.2     1  ASN1        0.3540
     13 CA         -0.4113    8.1634    5.6363 C.3     1  ASN1        0.0825
     14 HA         -0.9159    8.6364    4.9140 H       1  ASN1        0.0973
     15 CB          0.8294    7.5539    4.9999 C.3     1  ASN1        0.0770
     16 HB1         1.3227    8.2615    4.5138 H       1  ASN1        0.0420
     17 HB2         0.5503    6.8717    4.3389 H       1  ASN1        0.0420
     18 CG          1.7532    6.9141    6.0044 C.2     1  ASN1        0.2164
     19 O          -1.3682    2.6959    7.0646 O.2     1  LIG1       -0.0867
     20 O          -0.9933    4.6567    7.9248 O.2     1  LIG1       -0.0867
     21 O          -0.4088    4.2357    5.8771 O.2     1  LIG1       -0.0867
     22 N          -0.9188    3.8700    6.9695 N.pl3   1  LIG1        0.2601
@<TRIPOS>BOND
     1    17    15    1
     2    16    15    1
     3    10     9    1
     4    14    13    1
     5    15    13    1
     6    15    18    1
     7     8     5    1
     8     9    18   am
     9     9    11    1
    10    13     5    1
    11    13    12    1
    12    21    22    2
    13    18     4    2
    14     5     7    1
    15     5     6    1
    16     1    12    1
    17     1     2    1
    18    12     3    2
    19    22    19    2
    20    22    20    1
