@<TRIPOS>MOLECULE
(5-Ethenyl-1-azabicyclo[2.2.2]octan-2-yl)(6-methoxy-3-quinolyl)methanol methanol solvate
 54 56 0 0 0
SMALL
GASTEIGER

@<TRIPOS>ATOM
      1 O          -0.8785    6.3484   13.6491 O.3     1  LIG1       -0.3856
      2 H          -0.8193    7.1777   13.5316 H       1  LIG1        0.2103
      3 O           5.3873    4.7435   12.2697 O.3     1  LIG1       -0.4951
      4 O           3.0999    7.9030   14.6707 O.3     1  LIG1       -0.3982
      5 H           2.4864    7.4166   14.9743 H       1  LIG1        0.2090
      6 N           1.2383    6.2542   15.9207 N.3     1  LIG1       -0.2960
      7 N           0.5690    2.5311   10.7213 N.ar    1  LIG1       -0.2550
      8 C           0.8514    5.1920   14.9494 C.3     1  LIG1        0.0408
      9 H           1.6729    4.6483   14.7791 H       1  LIG1        0.0491
     10 C          -0.1907    4.2338   15.5590 C.3     1  LIG1       -0.0312
     11 H          -1.0825    4.4055   15.1663 H       1  LIG1        0.0284
     12 H           0.0582    3.2941   15.3695 H       1  LIG1        0.0284
     13 C          -0.2251    4.4772   17.0764 C.3     1  LIG1       -0.0310
     14 H          -0.7887    3.7823   17.5232 H       1  LIG1        0.0308
     15 C           1.2112    4.4145   17.6130 C.3     1  LIG1       -0.0367
     16 H           1.6318    3.5551   17.3565 H       1  LIG1        0.0280
     17 H           1.2074    4.4782   18.6008 H       1  LIG1        0.0280
     18 C           2.0038    5.5928   17.0096 C.3     1  LIG1       -0.0004
     19 H           2.2031    6.2532   17.7200 H       1  LIG1        0.0427
     20 H           2.8650    5.2599   16.6503 H       1  LIG1        0.0427
     21 C           0.0505    6.8890   16.5352 C.3     1  LIG1        0.0058
     22 H          -0.5141    7.2802   15.8234 H       1  LIG1        0.0432
     23 H           0.3453    7.6243   17.1280 H       1  LIG1        0.0432
     24 C          -0.7945    5.8778   17.3583 C.3     1  LIG1       -0.0075
     25 H          -0.6619    6.0779   18.3294 H       1  LIG1        0.0358
     26 C          -2.2689    5.9792   17.0537 C.2     1  LIG1       -0.0865
     27 H          -2.5274    6.0065   16.1408 H       1  LIG1        0.0570
     28 C          -3.2189    6.0325   17.9534 C.2     1  LIG1       -0.1023
     29 H          -2.9995    6.0065   18.8770 H       1  LIG1        0.0532
     30 H          -4.1268    6.0961   17.6819 H       1  LIG1        0.0532
     31 C           0.4261    5.7861   13.5887 C.3     1  LIG1        0.0963
     32 H           1.0739    6.5051   13.3348 H       1  LIG1        0.0659
     33 C           0.4754    4.6929   12.5370 C.ar    1  LIG1       -0.0070
     34 C          -0.6684    4.0946   12.0718 C.ar    1  LIG1       -0.0373
     35 H          -1.5193    4.4042   12.3587 H       1  LIG1        0.0636
     36 C          -0.5760    3.0157   11.1652 C.ar    1  LIG1        0.0286
     37 H          -1.3820    2.6163   10.8589 H       1  LIG1        0.0830
     38 C           1.7226    3.1387   11.1351 C.ar    1  LIG1        0.0715
     39 C           1.7308    4.2353   12.0435 C.ar    1  LIG1        0.0095
     40 C           2.9748    4.8125   12.4175 C.ar    1  LIG1       -0.0104
     41 H           2.9919    5.5611   13.0031 H       1  LIG1        0.0661
     42 C           4.1509    4.2932   11.9367 C.ar    1  LIG1        0.1208
     43 C           4.1394    3.1926   11.0307 C.ar    1  LIG1       -0.0179
     44 H           4.9585    2.8396   10.7018 H       1  LIG1        0.0655
     45 C           2.9604    2.6484   10.6361 C.ar    1  LIG1       -0.0323
     46 H           2.9623    1.9282   10.0162 H       1  LIG1        0.0640
     47 C           5.4377    5.7333   13.3021 C.3     1  LIG1        0.0788
     48 H           4.9776    6.5440   12.9999 H       1  LIG1        0.0660
     49 H           6.3729    5.9455   13.5062 H       1  LIG1        0.0660
     50 H           4.9976    5.3884   14.1061 H       1  LIG1        0.0660
     51 C           3.6137    8.6981   15.7115 C.3     1  LIG1        0.0330
     52 H           3.0396    9.4824   15.8377 H       1  LIG1        0.0521
     53 H           4.5207    8.9916   15.4822 H       1  LIG1        0.0521
     54 H           3.6395    8.1749   16.5392 H       1  LIG1        0.0521
@<TRIPOS>BOND
     1    46    45    1
     2    45    43   ar
     3    45    38   ar
     4    44    43    1
     5     7    38   ar
     6     7    36   ar
     7    37    36    1
     8    43    42   ar
     9    38    39   ar
    10    36    34   ar
    11    42     3    1
    12    42    40   ar
    13    39    40   ar
    14    39    33   ar
    15    34    35    1
    16    34    33   ar
    17     3    47    1
    18    40    41    1
    19    33    31    1
    20    48    47    1
    21    47    49    1
    22    47    50    1
    23    32    31    1
    24     2     1    1
    25    31     1    1
    26    31     8    1
    27     4     5    1
    28     4    51    1
    29     9     8    1
    30     8    10    1
    31     8     6    1
    32    11    10    1
    33    12    10    1
    34    53    51    1
    35    10    13    1
    36    51    52    1
    37    51    54    1
    38    22    21    1
    39     6    21    1
    40     6    18    1
    41    27    26    1
    42    21    23    1
    43    21    24    1
    44    20    18    1
    45    18    15    1
    46    18    19    1
    47    26    24    1
    48    26    28    2
    49    13    24    1
    50    13    14    1
    51    13    15    1
    52    16    15    1
    53    24    25    1
    54    15    17    1
    55    30    28    1
    56    28    29    1
