@<TRIPOS>MOLECULE
{2-[(2,6-Difluorophenoxy)methyl]phenyl}boronic acid
 30 31 0 0 0
SMALL
GASTEIGER

@<TRIPOS>ATOM
      1 F           5.8029    2.8103    6.1718 F       1  LIG1        0.0000
      2 F           4.8983   -0.9449    3.5161 F       1  LIG1        0.0000
      3 O           6.8738    0.5360    1.3778 O.3     1  LIG1        0.0000
      4 O           6.2660    1.0920   -0.8106 O.3     1  LIG1        0.0000
      5 O           6.0780    1.4717    3.7739 O.3     1  LIG1        0.0000
      6 C           4.6652    1.8584    0.9792 C.ar    1  LIG1        0.0000
      7 C           3.5668    1.7860    0.1127 C.ar    1  LIG1        0.0000
      8 C           2.3288    2.3292    0.4503 C.ar    1  LIG1        0.0000
      9 C           2.1718    2.9785    1.6585 C.ar    1  LIG1        0.0000
     10 C           3.2482    3.0860    2.5300 C.ar    1  LIG1        0.0000
     11 C           4.4868    2.5298    2.2107 C.ar    1  LIG1        0.0000
     12 C           5.6223    2.7273    3.1772 C.3     1  LIG1        0.0000
     13 C           5.3297    0.9592    4.8043 C.ar    1  LIG1        0.0000
     14 C           5.2092    1.5959    6.0321 C.ar    1  LIG1        0.0000
     15 C           4.5519    1.0322    7.1035 C.ar    1  LIG1        0.0000
     16 C           4.0196   -0.2416    6.9593 C.ar    1  LIG1        0.0000
     17 C           4.1364   -0.9292    5.7606 C.ar    1  LIG1        0.0000
     18 C           4.7732   -0.3071    4.7069 C.ar    1  LIG1        0.0000
     19 B           5.9997    1.1454    0.5155 B       1  LIG1        0.0000
     20 H           6.6346    0.6033    2.1611 H       1  LIG1        0.0000
     21 H           6.9170    0.5692   -0.9841 H       1  LIG1        0.0000
     22 H           3.6546    1.3220   -0.7289 H       1  LIG1        0.0000
     23 H           1.5791    2.2654   -0.1549 H       1  LIG1        0.0000
     24 H           1.3088    3.3611    1.9170 H       1  LIG1        0.0000
     25 H           3.1445    3.5432    3.3659 H       1  LIG1        0.0000
     26 H           5.3553    3.3454    3.8841 H       1  LIG1        0.0000
     27 H           6.4250    3.0651    2.7384 H       1  LIG1        0.0000
     28 H           4.4774    1.5311    7.9388 H       1  LIG1        0.0000
     29 H           3.5709   -0.6432    7.6880 H       1  LIG1        0.0000
     30 H           3.7562   -1.8029    5.6540 H       1  LIG1        0.0000
@<TRIPOS>BOND
     1    21     4    1
     2     4    19    1
     3    22     7    1
     4    23     8    1
     5     7     8   ar
     6     7     6   ar
     7     8     9   ar
     8    19     6    1
     9    19     3    1
    10     6    11   ar
    11     3    20    1
    12     9    24    1
    13     9    10   ar
    14    11    10   ar
    15    11    12    1
    16    10    25    1
    17    27    12    1
    18    12     5    1
    19    12    26    1
    20     2    18    1
    21     5    13    1
    22    18    13   ar
    23    18    17   ar
    24    13    14   ar
    25    30    17    1
    26    17    16   ar
    27    14     1    1
    28    14    15   ar
    29    16    15   ar
    30    16    29    1
    31    15    28    1
