@<TRIPOS>MOLECULE
2-Amino-6-methyl-1,3-benzothiazole--octanedioic acid (2/1)
 32 32 0 0 0
SMALL
GASTEIGER

@<TRIPOS>ATOM
      1 S          -8.4143   -0.9144   15.1204 S.2     1  LIG1       -0.0526
      2 O          -6.1257    3.8724   14.4546 O.2     2  LIG2       -0.2510
      3 O          -6.6442    3.1204   12.4486 O.3     2  LIG2       -0.4806
      4 H          -6.9645    2.5079   12.8896 H       2  LIG2        0.2951
      5 N          -7.7081    1.0147   13.5349 N.ar    1  LIG1       -0.2251
      6 N          -7.2734    1.4266   15.7799 N.pl3   1  LIG1       -0.3375
      7 H          -6.9376    2.1992   15.6052 H       1  LIG1        0.1442
      8 H          -7.3126    1.1479   16.5933 H       1  LIG1        0.1442
      9 C          -8.2499    0.0135   12.7301 C.ar    1  LIG1        0.0803
     10 C          -8.6807   -1.1170   13.4059 C.ar    1  LIG1        0.0410
     11 C          -9.2187   -2.2008   12.7360 C.ar    1  LIG1       -0.0429
     12 H          -9.4980   -2.9529   13.2050 H       1  LIG1        0.0632
     13 C          -9.3371   -2.1509   11.3556 C.ar    1  LIG1       -0.0493
     14 C          -8.9092   -1.0268   10.6963 C.ar    1  LIG1       -0.0568
     15 H          -8.9863   -0.9975    9.7696 H       1  LIG1        0.0621
     16 C          -8.3681    0.0586   11.3491 C.ar    1  LIG1       -0.0349
     17 H          -8.0882    0.8075   10.8729 H       1  LIG1        0.0639
     18 C          -7.7321    0.6626   14.7921 C.ar    1  LIG1        0.1566
     19 C          -9.9322   -3.3194   10.6017 C.3     1  LIG1       -0.0397
     20 H          -9.9054   -3.1405    9.6597 H       1  LIG1        0.0278
     21 H         -10.8436   -3.4468   10.8768 H       1  LIG1        0.0278
     22 H          -9.4277   -4.1134   10.7917 H       1  LIG1        0.0278
     23 C          -6.1208    4.0002   13.2454 C.2     2  LIG2        0.3047
     24 C          -5.5064    5.1592   12.5348 C.3     2  LIG2        0.0448
     25 H          -6.1899    5.5827   11.9918 H       2  LIG2        0.0377
     26 H          -4.8230    4.8227   11.9329 H       2  LIG2        0.0377
     27 C          -4.8826    6.2121   13.4246 C.3     2  LIG2       -0.0430
     28 H          -4.1770    5.8028   13.9497 H       2  LIG2        0.0270
     29 H          -5.5546    6.5430   14.0400 H       2  LIG2        0.0270
     30 C          -4.3064    7.3821   12.6514 C.3     2  LIG2       -0.0525
     31 H          -3.6262    7.0504   12.0455 H       2  LIG2        0.0265
     32 H          -5.0099    7.7780   12.1148 H       2  LIG2        0.0265
@<TRIPOS>BOND
     1    20    19    1
     2    15    14    1
     3    19    22    1
     4    19    21    1
     5    19    13    1
     6    14    16   ar
     7    14    13   ar
     8    17    16    1
     9    16     9   ar
    10    13    11   ar
    11    26    24    1
    12    25    24    1
    13    31    30    1
    14    32    30    1
    15     3     4    1
    16     3    23    1
    17    24    23    1
    18    24    27    1
    19    30    27    1
    20     9    10   ar
    21     9     5   ar
    22    11    12    1
    23    11    10   ar
    24    23     2    2
    25    10     1   ar
    26    27    28    1
    27    27    29    1
    28     5    18   ar
    29    18     1   ar
    30    18     6    1
    31     7     6    1
    32     6     8    1
