@<TRIPOS>MOLECULE
<i>N</i>-{1-[(3-Bromopropyl)aminocarbonyl]ethyl}-2-(2- nitrobenzenesulfonamido)propionamide
 48 48 0 0 0
SMALL
GASTEIGER

@<TRIPOS>ATOM
      1 BR          5.0448   -4.7466   21.1677 Br      1  LIG1       -0.0917
      2 S           4.7467    6.5680   16.1403 S.O2    1  LIG1        0.0612
      3 C           4.6421    5.5168   14.6870 C.ar    1  LIG1        0.1353
      4 C           4.6119    3.9620   12.4069 C.ar    1  LIG1       -0.0595
      5 H           4.6119    3.4370   11.6411 H       1  LIG1        0.0618
      6 C           5.7068    4.7025   14.4029 C.ar    1  LIG1       -0.0331
      7 H           6.4483    4.6910   14.9642 H       1  LIG1        0.0638
      8 C           3.5557    5.5499   13.8363 C.ar    1  LIG1        0.1524
      9 C           3.5510    4.7980   12.6634 C.ar    1  LIG1       -0.0295
     10 H           2.8425    4.8618   12.0639 H       1  LIG1        0.0641
     11 C           5.6765    3.8996   13.2836 C.ar    1  LIG1       -0.0598
     12 H           6.3775    3.3121   13.1173 H       1  LIG1        0.0618
     13 O           3.9969    7.7559   15.8665 O.2     1  LIG1       -0.1530
     14 O           6.1451    6.6828   16.4265 O.2     1  LIG1       -0.1530
     15 O           1.6995    6.0457   15.0612 O.2     1  LIG1       -0.1261
     16 O           2.1189    7.2971   13.3633 O.2     1  LIG1       -0.1261
     17 N           2.3702    6.3783   14.1118 N.pl3   1  LIG1        0.0584
     18 N           4.0574    5.8137   17.3656 N.3     1  LIG1       -0.1783
     19 H           3.3602    6.1616   17.7294 H       1  LIG1        0.1488
     20 C           3.8401    3.3746   17.2720 C.2     1  LIG1        0.2320
     21 C           4.5788    4.5406   17.8888 C.3     1  LIG1        0.1020
     22 H           5.5320    4.4692   17.6705 H       1  LIG1        0.0570
     23 C           4.4078    4.4935   19.3996 C.3     1  LIG1       -0.0396
     24 H           4.9227    5.1969   19.8033 H       1  LIG1        0.0250
     25 H           4.7120    3.6447   19.7305 H       1  LIG1        0.0250
     26 H           3.4811    4.6094   19.6214 H       1  LIG1        0.0250
     27 O           2.6243    3.3707   17.1680 O.2     1  LIG1       -0.2740
     28 N           4.5892    2.3245   16.9047 N.am    1  LIG1       -0.3029
     29 H           5.4460    2.3793   16.9601 H       1  LIG1        0.1495
     30 C           4.9104   -0.0548   16.7384 C.2     1  LIG1        0.2331
     31 C           3.9789    1.0794   16.4109 C.3     1  LIG1        0.0966
     32 H           3.1240    0.9367   16.8666 H       1  LIG1        0.0592
     33 C           3.7343    1.1559   14.8724 C.3     1  LIG1       -0.0381
     34 H           3.1571    1.8976   14.6766 H       1  LIG1        0.0252
     35 H           3.3233    0.3415   14.5726 H       1  LIG1        0.0252
     36 H           4.5731    1.2757   14.4202 H       1  LIG1        0.0252
     37 O           6.0950   -0.0204   16.4114 O.2     1  LIG1       -0.2738
     38 N           4.3521   -1.1113   17.3413 N.am    1  LIG1       -0.3138
     39 H           3.5047   -1.1023   17.4851 H       1  LIG1        0.1487
     40 C           5.1144   -2.2722   17.7623 C.3     1  LIG1        0.0124
     41 H           6.0459   -2.0161   17.8576 H       1  LIG1        0.0462
     42 H           5.0653   -2.9464   17.0675 H       1  LIG1        0.0462
     43 C           4.6534   -2.8674   19.0392 C.3     1  LIG1       -0.0278
     44 H           3.7532   -3.2127   18.9266 H       1  LIG1        0.0288
     45 H           4.6298   -2.1817   19.7253 H       1  LIG1        0.0288
     46 C           5.5811   -3.9990   19.4810 C.3     1  LIG1        0.0048
     47 H           6.4861   -3.6600   19.5555 H       1  LIG1        0.0382
     48 H           5.5783   -4.6974   18.8070 H       1  LIG1        0.0382
@<TRIPOS>BOND
     1     5     4    1
     2    10     9    1
     3     4     9   ar
     4     4    11   ar
     5     9     8   ar
     6    12    11    1
     7    11     6   ar
     8    16    17    2
     9     8    17    1
    10     8     3   ar
    11    17    15    2
    12     6     3   ar
    13     6     7    1
    14    36    33    1
    15    35    33    1
    16    34    33    1
    17     3     2    1
    18    33    31    1
    19    13     2    2
    20     2    14    2
    21     2    18    1
    22    31    30    1
    23    31    32    1
    24    31    28    1
    25    37    30    2
    26    30    38   am
    27    28    29    1
    28    28    20   am
    29    42    40    1
    30    27    20    2
    31    20    21    1
    32    38    39    1
    33    38    40    1
    34    18    19    1
    35    18    21    1
    36    22    21    1
    37    40    41    1
    38    40    43    1
    39    21    23    1
    40    48    46    1
    41    44    43    1
    42    43    46    1
    43    43    45    1
    44    23    26    1
    45    23    25    1
    46    23    24    1
    47    46    47    1
    48    46     1    1
