@<TRIPOS>MOLECULE
methyl 2-[methyl(methylsulfonyl)amino]benzoate
 58 58 0 0 0
SMALL
GASTEIGER

@<TRIPOS>ATOM
      1 S           3.3882   10.3794   -1.1950 S.O2    1  LIG1        0.0424
      2 O           4.6592    9.7988   -1.3988 O.2     1  LIG1       -0.1553
      3 O           2.6690    8.2696    1.3318 O.2     1  LIG1       -0.2449
      4 O           0.5381    7.8572    1.6562 O.3     1  LIG1       -0.4644
      5 O           2.2106    9.6395   -1.5223 O.2     1  LIG1       -0.1553
      6 N           3.2826   10.8012    0.3546 N.pl3   1  LIG1       -0.2099
      7 C           1.9887   11.0982    0.9168 C.ar    1  LIG1        0.0645
      8 C           1.6035   12.4130    1.0310 C.ar    1  LIG1       -0.0383
      9 H           2.1875   13.0837    0.7552 H       1  LIG1        0.0637
     10 C           0.3625   12.7622    1.5472 C.ar    1  LIG1       -0.0599
     11 H           0.1282   13.6554    1.6497 H       1  LIG1        0.0618
     12 C          -0.5170   11.7608    1.9045 C.ar    1  LIG1       -0.0609
     13 H          -1.3703   11.9772    2.2039 H       1  LIG1        0.0618
     14 C          -0.1309   10.4337    1.8191 C.ar    1  LIG1       -0.0459
     15 H          -0.7206    9.7651    2.0831 H       1  LIG1        0.0626
     16 C           1.1167   10.0948    1.3463 C.ar    1  LIG1        0.0815
     17 C           1.5770    8.6636    1.4224 C.2     1  LIG1        0.3408
     18 C           0.8607    6.4587    1.8362 C.3     1  LIG1        0.0820
     19 H           1.5553    6.3729    2.4929 H       1  LIG1        0.0661
     20 H           1.1617    6.0902    1.0021 H       1  LIG1        0.0661
     21 H           0.0795    5.9860    2.1317 H       1  LIG1        0.0661
     22 C           4.4685   11.1830    1.0967 C.3     1  LIG1        0.0232
     23 H           4.4867   10.7134    1.9334 H       1  LIG1        0.0446
     24 H           4.4516   12.1293    1.2609 H       1  LIG1        0.0446
     25 H           5.2507   10.9604    0.5871 H       1  LIG1        0.0446
     26 C           3.3391   11.8465   -2.1475 C.3     1  LIG1        0.0738
     27 H           2.5810   12.3732   -1.8848 H       1  LIG1        0.0482
     28 H           3.2661   11.6219   -3.0774 H       1  LIG1        0.0482
     29 H           4.1436   12.3498   -2.0017 H       1  LIG1        0.0482
     30 S           5.7164    0.1417    7.3854 S.O2    2  LIG2        0.0424
     31 O           4.7224    2.0886    4.4433 O.2     2  LIG2       -0.2449
     32 O           2.5951    2.5724    4.8413 O.3     2  LIG2       -0.4644
     33 O           4.5867    0.8799    7.8385 O.2     2  LIG2       -0.1553
     34 O           7.0175    0.7115    7.4590 O.2     2  LIG2       -0.1553
     35 N           5.4644   -0.2419    5.8434 N.pl3   2  LIG2       -0.2099
     36 C           4.1386   -0.6186    5.4442 C.ar    2  LIG2        0.0645
     37 C           3.7638   -1.9600    5.5243 C.ar    2  LIG2       -0.0383
     38 H           4.3779   -2.5969    5.8093 H       2  LIG2        0.0637
     39 C           2.4985   -2.3366    5.1828 C.ar    2  LIG2       -0.0599
     40 H           2.2654   -3.2370    5.2051 H       2  LIG2        0.0618
     41 C           1.5703   -1.4097    4.8111 C.ar    2  LIG2       -0.0609
     42 H           0.7005   -1.6741    4.6167 H       2  LIG2        0.0618
     43 C           1.9235   -0.0745    4.7218 C.ar    2  LIG2       -0.0459
     44 H           1.2872    0.5553    4.4696 H       2  LIG2        0.0626
     45 C           3.2308    0.3348    5.0055 C.ar    2  LIG2        0.0815
     46 C           3.6307    1.7558    4.7730 C.2     2  LIG2        0.3408
     47 C           2.8891    3.9761    4.5957 C.3     2  LIG2        0.0820
     48 H           3.2986    4.0720    3.7328 H       2  LIG2        0.0661
     49 H           3.4888    4.3007    5.2721 H       2  LIG2        0.0661
     50 H           2.0743    4.4834    4.6206 H       2  LIG2        0.0661
     51 C           6.5833   -0.6697    5.0015 C.3     2  LIG2        0.0232
     52 H           6.3695   -0.5084    4.0795 H       2  LIG2        0.0446
     53 H           6.7449   -1.6068    5.1342 H       2  LIG2        0.0446
     54 H           7.3696   -0.1725    5.2393 H       2  LIG2        0.0446
     55 C           5.7359   -1.3485    8.2982 C.3     2  LIG2        0.0738
     56 H           5.9667   -1.1617    9.2111 H       2  LIG2        0.0482
     57 H           6.3853   -1.9467    7.9200 H       2  LIG2        0.0482
     58 H           4.8667   -1.7558    8.2654 H       2  LIG2        0.0482
@<TRIPOS>BOND
     1    28    26    1
     2    26    29    1
     3    26    27    1
     4    26     1    1
     5     5     1    2
     6     2     1    2
     7     1     6    1
     8     6     7    1
     9     6    22    1
    10    25    22    1
    11     9     8    1
    12     7     8   ar
    13     7    16   ar
    14    20    18    1
    15     8    10   ar
    16    22    24    1
    17    22    23    1
    18     3    17    2
    19    16    17    1
    20    16    14   ar
    21    17     4    1
    22    10    11    1
    23    10    12   ar
    24     4    18    1
    25    14    12   ar
    26    14    15    1
    27    18    21    1
    28    18    19    1
    29    12    13    1
    30    48    47    1
    31    52    51    1
    32    31    46    2
    33    44    43    1
    34    47    50    1
    35    47    32    1
    36    47    49    1
    37    42    41    1
    38    43    41   ar
    39    43    45   ar
    40    46    32    1
    41    46    45    1
    42    41    39   ar
    43    51    53    1
    44    51    54    1
    45    51    35    1
    46    45    36   ar
    47    39    40    1
    48    39    37   ar
    49    36    37   ar
    50    36    35    1
    51    37    38    1
    52    35    30    1
    53    30    34    2
    54    30    33    2
    55    30    55    1
    56    57    55    1
    57    58    55    1
    58    55    56    1
