@<TRIPOS>MOLECULE
2,4,6-Trimethylanilinium bromide
 25 24 0 0 0
SMALL
GASTEIGER

@<TRIPOS>ATOM
      1 BR          1.0407    0.1015    7.1567 Br      1  LIG1        0.0000
      2 N           1.9332    1.1868    4.0706 N.pl3   2  LIG2       -0.4109
      3 H           1.1751    1.0858    3.7118 H       2  LIG2        0.3712
      4 H           1.7782    0.7862    4.9045 H       2  LIG2        0.3712
      5 H           2.5894    0.6178    3.5576 H       2  LIG2        0.3712
      6 C           2.3065    2.5983    4.1694 C.ar    2  LIG2        0.1475
      7 C           3.2944    2.9540    5.0844 C.ar    2  LIG2        0.0150
      8 C           3.5949    4.3037    5.1883 C.ar    2  LIG2       -0.0499
      9 H           4.2251    4.5677    5.8186 H       2  LIG2        0.0625
     10 C           3.0116    5.2659    4.4099 C.ar    2  LIG2       -0.0495
     11 C           2.0850    4.8578    3.4712 C.ar    2  LIG2       -0.0499
     12 H           1.6950    5.4943    2.9170 H       2  LIG2        0.0625
     13 C           1.7158    3.5250    3.3283 C.ar    2  LIG2        0.0150
     14 C           4.0473    1.9244    5.8823 C.3     2  LIG2       -0.0337
     15 H           3.7072    1.0502    5.6808 H       2  LIG2        0.0280
     16 H           3.9371    2.1023    6.8201 H       2  LIG2        0.0280
     17 H           4.9801    1.9656    5.6582 H       2  LIG2        0.0280
     18 C           3.3870    6.7336    4.5436 C.3     2  LIG2       -0.0397
     19 H           2.8764    7.2521    3.9185 H       2  LIG2        0.0278
     20 H           4.3229    6.8422    4.3596 H       2  LIG2        0.0278
     21 H           3.1998    7.0312    5.4361 H       2  LIG2        0.0278
     22 C           0.7238    3.1450    2.2600 C.3     2  LIG2       -0.0337
     23 H           0.4388    3.9349    1.7932 H       2  LIG2        0.0280
     24 H          -0.0364    2.7219    2.6651 H       2  LIG2        0.0280
     25 H           1.1366    2.5384    1.6410 H       2  LIG2        0.0280
@<TRIPOS>BOND
     1    25    22    1
     2    23    22    1
     3    22    24    1
     4    22    13    1
     5    12    11    1
     6    13    11   ar
     7    13     6   ar
     8    11    10   ar
     9     5     2    1
    10     3     2    1
    11    19    18    1
    12     2     6    1
    13     2     4    1
    14     6     7   ar
    15    20    18    1
    16    10    18    1
    17    10     8   ar
    18    18    21    1
    19     7     8   ar
    20     7    14    1
    21     8     9    1
    22    17    14    1
    23    15    14    1
    24    14    16    1
