@<TRIPOS>MOLECULE
(<i>R</i>)-(-)-N-Isovalerylcamphorsultam
 90 94 0 0 0
SMALL
GASTEIGER

@<TRIPOS>ATOM
      1 S           6.2231    3.4721    6.2118 S.O2    1  LIG1        0.0484
      2 N           7.5948    2.9536    7.0575 N.am    1  LIG1       -0.1725
      3 O           5.7500    4.6846    6.7697 O.2     1  LIG1       -0.1549
      4 O           6.4961    3.4627    4.8149 O.2     1  LIG1       -0.1549
      5 O           9.8118    2.7078    7.0801 O.2     1  LIG1       -0.2740
      6 C          10.2789    5.4742    6.5553 C.3     1  LIG1       -0.0384
      7 H          11.0242    4.8877    6.3488 H       1  LIG1        0.0300
      8 C           9.0190    4.7612    6.1318 C.3     1  LIG1        0.0280
      9 H           8.2524    5.3098    6.3589 H       1  LIG1        0.0361
     10 H           9.0277    4.6482    5.1685 H       1  LIG1        0.0361
     11 C           8.8720    3.4168    6.7823 C.2     1  LIG1        0.2348
     12 C           5.2133    2.0913    6.6743 C.3     1  LIG1        0.0929
     13 H           4.3344    2.3949    6.9516 H       1  LIG1        0.0525
     14 H           5.1090    1.4851    5.9219 H       1  LIG1        0.0525
     15 C           5.9120    1.3887    7.8265 C.3     1  LIG1        0.0175
     16 C           5.7587   -0.1336    7.9024 C.3     1  LIG1       -0.0433
     17 H           6.2369   -0.5730    7.1826 H       1  LIG1        0.0272
     18 H           4.8253   -0.3960    7.8707 H       1  LIG1        0.0272
     19 C           6.3910   -0.4576    9.2776 C.3     1  LIG1       -0.0490
     20 H           5.7595   -0.9161    9.8547 H       1  LIG1        0.0268
     21 H           7.1846   -1.0077    9.1767 H       1  LIG1        0.0268
     22 C           6.7443    0.9200    9.8351 C.3     1  LIG1       -0.0335
     23 H           6.8344    0.9445   10.8091 H       1  LIG1        0.0307
     24 C           7.9694    1.4440    9.0837 C.3     1  LIG1       -0.0286
     25 H           8.6981    0.8046    9.1114 H       1  LIG1        0.0287
     26 H           8.2721    2.2889    9.4479 H       1  LIG1        0.0287
     27 C           7.4288    1.6163    7.6552 C.3     1  LIG1        0.0565
     28 H           7.8082    0.9319    7.0671 H       1  LIG1        0.0525
     29 C          10.4725    6.7514    5.7481 C.3     1  LIG1       -0.0622
     30 H           9.7501    7.3569    5.9269 H       1  LIG1        0.0232
     31 H          10.4852    6.5396    4.8118 H       1  LIG1        0.0232
     32 H          11.3040    7.1624    5.9922 H       1  LIG1        0.0232
     33 C          10.3050    5.7287    8.0355 C.3     1  LIG1       -0.0622
     34 H           9.5470    6.2638    8.2826 H       1  LIG1        0.0232
     35 H          11.1127    6.1926    8.2675 H       1  LIG1        0.0232
     36 H          10.2718    4.8917    8.5036 H       1  LIG1        0.0232
     37 C           5.6196    1.8234    9.2857 C.3     1  LIG1       -0.0231
     38 C           5.7895    3.3054    9.6302 C.3     1  LIG1       -0.0589
     39 H           5.7239    3.4223   10.5830 H       1  LIG1        0.0235
     40 H           5.1019    3.8160    9.1967 H       1  LIG1        0.0235
     41 H           6.6495    3.6073    9.3273 H       1  LIG1        0.0235
     42 C           4.2017    1.4369    9.7543 C.3     1  LIG1       -0.0589
     43 H           4.1100    1.6306   10.6885 H       1  LIG1        0.0235
     44 H           4.0602    0.4987    9.6086 H       1  LIG1        0.0235
     45 H           3.5520    1.9404    9.2570 H       1  LIG1        0.0235
     46 S           7.1735    6.7750    3.1804 S.O2    2  LIG2        0.0484
     47 N           6.8739    8.0437    2.1081 N.am    2  LIG2       -0.1725
     48 O           8.4634    6.2345    2.9213 O.2     2  LIG2       -0.1549
     49 O           6.8961    7.2106    4.5039 O.2     2  LIG2       -0.1549
     50 O           6.7996   10.2655    1.7967 O.2     2  LIG2       -0.2740
     51 C           9.6015   10.4828    2.5923 C.3     2  LIG2       -0.0384
     52 H           9.1597   11.3317    2.7475 H       2  LIG2        0.0300
     53 C           8.6641    9.4522    3.0775 C.3     2  LIG2        0.0280
     54 H           8.4381    9.6521    3.9981 H       2  LIG2        0.0361
     55 H           9.1186    8.5954    3.0689 H       2  LIG2        0.0361
     56 C           7.3932    9.3225    2.2954 C.2     2  LIG2        0.2348
     57 C           5.8788    5.7042    2.5742 C.3     2  LIG2        0.0929
     58 H           6.2401    4.8324    2.3507 H       2  LIG2        0.0525
     59 H           5.1920    5.5896    3.2498 H       2  LIG2        0.0525
     60 C           5.3011    6.3720    1.3386 C.3     2  LIG2        0.0175
     61 C           3.7978    6.2638    1.1266 C.3     2  LIG2       -0.0433
     62 H           3.3133    6.7988    1.7730 H       2  LIG2        0.0272
     63 H           3.5006    5.3430    1.1904 H       2  LIG2        0.0272
     64 C           3.6081    6.8178   -0.3114 C.3     2  LIG2       -0.0490
     65 H           3.1710    6.1673   -0.8840 H       2  LIG2        0.0268
     66 H           3.0864    7.6359   -0.3064 H       2  LIG2        0.0268
     67 C           5.0426    7.0802   -0.7685 C.3     2  LIG2       -0.0335
     68 H           5.1533    7.0952   -1.7429 H       2  LIG2        0.0307
     69 C           5.5485    8.3259   -0.0763 C.3     2  LIG2       -0.0286
     70 H           4.9430    9.0728   -0.2059 H       2  LIG2        0.0287
     71 H           6.4321    8.5717   -0.3918 H       2  LIG2        0.0287
     72 C           5.5832    7.8801    1.4079 C.3     2  LIG2        0.0565
     73 H           4.8719    8.3314    1.9087 H       2  LIG2        0.0525
     74 C          10.8480   10.5121    3.4416 C.3     2  LIG2       -0.0622
     75 H          10.6156   10.7515    4.3397 H       2  LIG2        0.0232
     76 H          11.4613   11.1594    3.0890 H       2  LIG2        0.0232
     77 H          11.2590    9.6450    3.4356 H       2  LIG2        0.0232
     78 C           9.8963   10.4512    1.1467 C.3     2  LIG2       -0.0622
     79 H          10.6148   11.0582    0.9543 H       2  LIG2        0.0232
     80 H           9.1147   10.7128    0.6530 H       2  LIG2        0.0232
     81 H          10.1516    9.5620    0.8941 H       2  LIG2        0.0232
     82 C           5.8512    5.9571   -0.0608 C.3     2  LIG2       -0.0231
     83 C           7.3521    6.0764   -0.2587 C.3     2  LIG2       -0.0589
     84 H           7.7939    5.3604    0.2009 H       2  LIG2        0.0235
     85 H           7.6548    6.9174    0.0904 H       2  LIG2        0.0235
     86 H           7.5560    6.0282   -1.1954 H       2  LIG2        0.0235
     87 C           5.4323    4.5447   -0.4978 C.3     2  LIG2       -0.0589
     88 H           5.7129    4.3945   -1.4014 H       2  LIG2        0.0235
     89 H           4.4783    4.4617   -0.4420 H       2  LIG2        0.0235
     90 H           5.8457    3.8966    0.0753 H       2  LIG2        0.0235
@<TRIPOS>BOND
     1    68    67    1
     2    88    87    1
     3    86    83    1
     4    65    64    1
     5    67    64    1
     6    67    69    1
     7    67    82    1
     8    87    89    1
     9    87    82    1
    10    87    90    1
    11    71    69    1
    12    64    66    1
    13    64    61    1
    14    83    82    1
    15    83    85    1
    16    83    84    1
    17    70    69    1
    18    69    72    1
    19    82    60    1
    20    80    78    1
    21    81    78    1
    22    79    78    1
    23    61    63    1
    24    61    60    1
    25    61    62    1
    26    78    51    1
    27    60    72    1
    28    60    57    1
    29    72    73    1
    30    72    47    1
    31    50    56    2
    32    47    56   am
    33    47    46    1
    34    56    53    1
    35    58    57    1
    36    57    46    1
    37    57    59    1
    38    51    52    1
    39    51    53    1
    40    51    74    1
    41    48    46    2
    42    55    53    1
    43    53    54    1
    44    76    74    1
    45    46    49    2
    46    77    74    1
    47    74    75    1
    48    31    29    1
    49     4     1    2
    50    10     8    1
    51    29    30    1
    52    29    32    1
    53    29     6    1
    54    14    12    1
    55     8     9    1
    56     8     6    1
    57     8    11    1
    58     1    12    1
    59     1     3    2
    60     1     2    1
    61     7     6    1
    62     6    33    1
    63    12    13    1
    64    12    15    1
    65    11     2   am
    66    11     5    2
    67     2    27    1
    68    28    27    1
    69    17    16    1
    70    27    15    1
    71    27    24    1
    72    15    16    1
    73    15    37    1
    74    18    16    1
    75    16    19    1
    76    33    35    1
    77    33    34    1
    78    33    36    1
    79    24    25    1
    80    24    26    1
    81    24    22    1
    82    21    19    1
    83    40    38    1
    84    45    42    1
    85    19    22    1
    86    19    20    1
    87    37    38    1
    88    37    42    1
    89    37    22    1
    90    41    38    1
    91    44    42    1
    92    38    39    1
    93    42    43    1
    94    22    23    1
