@<TRIPOS>MOLECULE
6,6'-Dimethoxy-2,2'-[(<i>E</i>,<i>E</i>')-(4-chloro-<i>m</i>- phenylene)bis(nitrilomethylidyne)]diphenol
 48 50 0 0 0
SMALL
GASTEIGER

@<TRIPOS>ATOM
      1 O           1.6210    4.1675   32.7582 O.3     1  LIG1       -0.4914
      2 O           3.3533    4.3911   30.8048 O.3     1  LIG1       -0.5029
      3 O           7.1538   -2.5515   22.3022 O.3     1  LIG1       -0.4914
      4 O           6.6098   -0.4136   23.6947 O.3     1  LIG1       -0.5029
      5 CL          5.9484    5.9049   28.8965 Cl      1  LIG1       -0.0813
      6 N           7.4154    1.4699   25.2762 N.2     1  LIG1       -0.2548
      7 N           4.7172    3.2738   28.9138 N.2     1  LIG1       -0.2533
      8 C           6.0801    2.3944   27.0236 C.ar    1  LIG1       -0.0095
      9 H           5.6055    1.5947   27.0164 H       1  LIG1        0.0660
     10 C           5.7129    3.3862   27.9215 C.ar    1  LIG1        0.0841
     11 C           6.3976    4.6057   27.8411 C.ar    1  LIG1        0.0664
     12 C           7.4212    4.7889   26.9420 C.ar    1  LIG1       -0.0393
     13 H           7.8589    5.6085   26.9043 H       1  LIG1        0.0633
     14 C           7.8051    3.7745   26.0952 C.ar    1  LIG1       -0.0348
     15 H           8.5100    3.8979   25.4992 H       1  LIG1        0.0639
     16 C           7.1231    2.5563   26.1417 C.ar    1  LIG1        0.0660
     17 C           4.1542    2.1695   29.2014 C.2     1  LIG1        0.0390
     18 H           4.3718    1.4122   28.7060 H       1  LIG1        0.0837
     19 C           3.1935    2.0522   30.2640 C.ar    1  LIG1        0.0381
     20 C           2.6300    0.8059   30.5697 C.ar    1  LIG1       -0.0494
     21 H           2.8769    0.0562   30.0795 H       1  LIG1        0.0625
     22 C           1.7241    0.6804   31.5786 C.ar    1  LIG1       -0.0575
     23 H           1.3579   -0.1523   31.7720 H       1  LIG1        0.0619
     24 C           1.3447    1.7915   32.3231 C.ar    1  LIG1       -0.0163
     25 H           0.7087    1.7024   32.9961 H       1  LIG1        0.0655
     26 C           1.9059    3.0234   32.0691 C.ar    1  LIG1        0.1619
     27 C           2.8328    3.1695   31.0335 C.ar    1  LIG1        0.1672
     28 C           8.6197    1.1475   24.9909 C.2     1  LIG1        0.0390
     29 H           9.3169    1.6537   25.3412 H       1  LIG1        0.0837
     30 C           8.9326    0.0178   24.1401 C.ar    1  LIG1        0.0381
     31 C          10.2595   -0.3868   23.9659 C.ar    1  LIG1       -0.0494
     32 H          10.9462    0.1118   24.3469 H       1  LIG1        0.0625
     33 C          10.5570   -1.5028   23.2441 C.ar    1  LIG1       -0.0575
     34 H          11.4419   -1.7710   23.1487 H       1  LIG1        0.0619
     35 C           9.5381   -2.2422   22.6510 C.ar    1  LIG1       -0.0163
     36 H           9.7513   -2.9946   22.1487 H       1  LIG1        0.0655
     37 C           8.2262   -1.8759   22.7981 C.ar    1  LIG1        0.1619
     38 C           7.9073   -0.7339   23.5536 C.ar    1  LIG1        0.1672
     39 C           0.7538    4.0543   33.8642 C.3     1  LIG1        0.0790
     40 H          -0.0766    3.6633   33.5823 H       1  LIG1        0.0660
     41 H           0.5882    4.9254   34.2317 H       1  LIG1        0.0660
     42 H           1.1586    3.4967   34.5334 H       1  LIG1        0.0660
     43 C           7.4054   -3.7669   21.5973 C.3     1  LIG1        0.0790
     44 H           7.9314   -3.5810   20.8154 H       1  LIG1        0.0660
     45 H           6.5713   -4.1634   21.3355 H       1  LIG1        0.0660
     46 H           7.8827   -4.3739   22.1660 H       1  LIG1        0.0660
     47 H           6.5480    0.1852   24.2464 H       1  LIG1        0.2923
     48 H           3.9043    4.2525   30.2031 H       1  LIG1        0.2923
@<TRIPOS>BOND
     1    44    43    1
     2    45    43    1
     3    43    46    1
     4    43     3    1
     5    36    35    1
     6     3    37    1
     7    35    37   ar
     8    35    33   ar
     9    37    38   ar
    10    34    33    1
    11    33    31   ar
    12    38     4    1
    13    38    30   ar
    14     4    47    1
    15    31    30   ar
    16    31    32    1
    17    30    28    1
    18    28     6    2
    19    28    29    1
    20     6    16    1
    21    15    14    1
    22    14    16   ar
    23    14    12   ar
    24    16     8   ar
    25    13    12    1
    26    12    11   ar
    27     9     8    1
    28     8    10   ar
    29    11    10   ar
    30    11     5    1
    31    10     7    1
    32    18    17    1
    33     7    17    2
    34    17    19    1
    35    21    20    1
    36    48     2    1
    37    19    20   ar
    38    19    27   ar
    39    20    22   ar
    40     2    27    1
    41    27    26   ar
    42    22    23    1
    43    22    24   ar
    44    26    24   ar
    45    26     1    1
    46    24    25    1
    47     1    39    1
    48    40    39    1
    49    39    41    1
    50    39    42    1
