@<TRIPOS>MOLECULE
2,3,6-Triphenylpiperidin-4-one
 46 49 0 0 0
SMALL
GASTEIGER

@<TRIPOS>ATOM
      1 C          11.8580    2.5533    3.1706 C.3     1  LIG1        0.0401
      2 H          11.6588    3.4740    3.4416 H       1  LIG1        0.0514
      3 C          12.3081    1.7586    4.4007 C.3     1  LIG1        0.0260
      4 H          12.5986    0.8775    4.1154 H       1  LIG1        0.0360
      5 H          13.0698    2.2061    4.8017 H       1  LIG1        0.0360
      6 C          11.2348    1.6057    5.4336 C.2     1  LIG1        0.1443
      7 C           9.8396    1.2758    4.9054 C.3     1  LIG1        0.0620
      8 H           9.8557    0.3317    4.6439 H       1  LIG1        0.0445
      9 C           9.5233    2.0885    3.6199 C.3     1  LIG1        0.0469
     10 H           9.4518    3.0362    3.8599 H       1  LIG1        0.0520
     11 C          12.9370    2.5773    2.1190 C.ar    1  LIG1       -0.0301
     12 C          13.1049    1.5379    1.2319 C.ar    1  LIG1       -0.0571
     13 H          12.5190    0.8163    1.2549 H       1  LIG1        0.0621
     14 C          14.1268    1.5511    0.3091 C.ar    1  LIG1       -0.0615
     15 H          14.2199    0.8385   -0.2805 H       1  LIG1        0.0618
     16 C          14.9925    2.5767    0.2500 C.ar    1  LIG1       -0.0617
     17 H          15.6866    2.5713   -0.3682 H       1  LIG1        0.0618
     18 C          14.8419    3.6216    1.1044 C.ar    1  LIG1       -0.0615
     19 H          15.4296    4.3414    1.0595 H       1  LIG1        0.0618
     20 C          13.8183    3.6264    2.0462 C.ar    1  LIG1       -0.0571
     21 H          13.7308    4.3456    2.6300 H       1  LIG1        0.0621
     22 C           8.2265    1.6542    2.9862 C.ar    1  LIG1       -0.0295
     23 C           7.1129    2.4658    3.0185 C.ar    1  LIG1       -0.0571
     24 H           7.1657    3.2935    3.4391 H       1  LIG1        0.0621
     25 C           5.9248    2.0783    2.4422 C.ar    1  LIG1       -0.0615
     26 H           5.1873    2.6427    2.4797 H       1  LIG1        0.0618
     27 C           5.8236    0.8703    1.8152 C.ar    1  LIG1       -0.0617
     28 H           5.0227    0.6124    1.4202 H       1  LIG1        0.0618
     29 C           6.9119    0.0432    1.7754 C.ar    1  LIG1       -0.0615
     30 H           6.8484   -0.7827    1.3526 H       1  LIG1        0.0618
     31 C           8.1073    0.4241    2.3600 C.ar    1  LIG1       -0.0571
     32 H           8.8374   -0.1511    2.3320 H       1  LIG1        0.0621
     33 C           8.7404    1.4209    5.9261 C.ar    1  LIG1       -0.0354
     34 C           8.5761    2.6121    6.6181 C.ar    1  LIG1       -0.0578
     35 H           9.1677    3.3133    6.4673 H       1  LIG1        0.0620
     36 C           7.5560    2.7765    7.5226 C.ar    1  LIG1       -0.0615
     37 H           7.4694    3.5790    7.9852 H       1  LIG1        0.0618
     38 C           6.6605    1.7538    7.7445 C.ar    1  LIG1       -0.0617
     39 H           5.9693    1.8624    8.3560 H       1  LIG1        0.0618
     40 C           6.7942    0.5776    7.0600 C.ar    1  LIG1       -0.0615
     41 H           6.1840   -0.1104    7.1987 H       1  LIG1        0.0618
     42 C           7.8299    0.4061    6.1660 C.ar    1  LIG1       -0.0578
     43 H           7.9182   -0.4037    5.7184 H       1  LIG1        0.0620
     44 N          10.6313    1.9302    2.6761 N.3     1  LIG1       -0.3013
     45 O          11.4768    1.6878    6.6179 O.2     1  LIG1       -0.2966
     46 H          10.4120    2.3212    1.9262 H       1  LIG1        0.1231
@<TRIPOS>BOND
     1    17    16    1
     2    15    14    1
     3    16    14   ar
     4    16    18   ar
     5    14    12   ar
     6    19    18    1
     7    18    20   ar
     8    12    13    1
     9    12    11   ar
    10    30    29    1
    11    28    27    1
    12    29    27   ar
    13    29    31   ar
    14    27    25   ar
    15    46    44    1
    16    20    11   ar
    17    20    21    1
    18    11     1    1
    19    32    31    1
    20    31    22   ar
    21    25    26    1
    22    25    23   ar
    23    44     1    1
    24    44     9    1
    25    22    23   ar
    26    22     9    1
    27    23    24    1
    28     1     2    1
    29     1     3    1
    30     9    10    1
    31     9     7    1
    32     4     3    1
    33     3     5    1
    34     3     6    1
    35     8     7    1
    36     7     6    1
    37     7    33    1
    38     6    45    2
    39    43    42    1
    40    33    42   ar
    41    33    34   ar
    42    42    40   ar
    43    35    34    1
    44    34    36   ar
    45    40    41    1
    46    40    38   ar
    47    36    38   ar
    48    36    37    1
    49    38    39    1
