@<TRIPOS>MOLECULE
Ethyl 4-hydroxy-1-(2-morpholinopropanoyl)-2,6-diphenyl- 1,2,5,6-tetrahydropyridin-3-carboxylate
 66 69 0 0 0
SMALL
GASTEIGER

@<TRIPOS>ATOM
      1 O          -1.0842    6.4043    7.9429 O.2     1  LIG1       -0.2738
      2 N           2.1065    5.7423    8.0898 N.3     1  LIG1       -0.2874
      3 C           1.2313    7.4173   10.5298 C.3     1  LIG1        0.0589
      4 H           1.8973    7.6255    9.8430 H       1  LIG1        0.0555
      5 C           1.8201    6.3179   11.3871 C.3     1  LIG1        0.0281
      6 H           2.3574    5.7369   10.8267 H       1  LIG1        0.0365
      7 H           2.4079    6.7162   12.0484 H       1  LIG1        0.0365
      8 O           3.7716    3.4669    7.9633 O.3     1  LIG1       -0.3772
      9 O           1.3326    4.7150   13.0259 O.2     1  LIG1       -0.5104
     10 H           0.7595    4.1956   13.2989 H       1  LIG1        0.2917
     11 C           0.8035    5.5064   12.0803 C.2     1  LIG1        0.1082
     12 O          -1.0312    3.8348   13.3419 O.2     1  LIG1       -0.2451
     13 C          -0.5024    5.5096   11.7562 C.2     1  LIG1        0.0983
     14 O          -2.6231    4.5850   11.9607 O.3     1  LIG1       -0.4615
     15 C          -1.0572    6.3880   10.6566 C.3     1  LIG1        0.0870
     16 H          -1.5768    5.7942   10.0753 H       1  LIG1        0.0605
     17 N           0.0406    6.9053    9.8255 N.am    1  LIG1       -0.2813
     18 C          -0.0390    6.7332    8.4761 C.2     1  LIG1        0.2338
     19 C           1.2480    6.8437    7.6498 C.3     1  LIG1        0.0847
     20 H           1.6901    7.6828    7.8956 H       1  LIG1        0.0556
     21 C           1.5702    4.4208    7.7929 C.3     1  LIG1        0.0231
     22 H           1.5410    4.2870    6.8316 H       1  LIG1        0.0449
     23 H           0.6652    4.3507    8.1365 H       1  LIG1        0.0449
     24 C           2.4268    3.3809    8.4187 C.3     1  LIG1        0.0604
     25 H           2.4073    3.4861    9.3841 H       1  LIG1        0.0572
     26 H           2.0721    2.5025    8.2053 H       1  LIG1        0.0572
     27 C           4.2877    4.7522    8.2501 C.3     1  LIG1        0.0604
     28 H           5.2017    4.8085    7.9300 H       1  LIG1        0.0572
     29 H           4.2980    4.8861    9.2120 H       1  LIG1        0.0572
     30 C           3.4761    5.8272    7.6119 C.3     1  LIG1        0.0231
     31 H           3.8486    6.6950    7.8325 H       1  LIG1        0.0449
     32 H           3.4947    5.7252    6.6480 H       1  LIG1        0.0449
     33 C          -2.0249    7.4683   11.1224 C.ar    1  LIG1       -0.0223
     34 C          -2.2747    7.7402   12.4451 C.ar    1  LIG1       -0.0565
     35 H          -1.8052    7.2813   13.1039 H       1  LIG1        0.0621
     36 C          -3.2144    8.6877   12.8119 C.ar    1  LIG1       -0.0614
     37 H          -3.3743    8.8534   13.7119 H       1  LIG1        0.0618
     38 C          -3.9032    9.3759   11.8686 C.ar    1  LIG1       -0.0617
     39 H          -4.5329   10.0133   12.1173 H       1  LIG1        0.0618
     40 C          -3.6635    9.1221   10.5502 C.ar    1  LIG1       -0.0614
     41 H          -4.1266    9.5958    9.8974 H       1  LIG1        0.0618
     42 C          -2.7425    8.1693   10.1788 C.ar    1  LIG1       -0.0565
     43 H          -2.6022    7.9962    9.2751 H       1  LIG1        0.0621
     44 C           0.9340    8.7185   11.2537 C.ar    1  LIG1       -0.0266
     45 C           0.7409    9.8614   10.5144 C.ar    1  LIG1       -0.0568
     46 H           0.7540    9.8136    9.5848 H       1  LIG1        0.0621
     47 C           0.5296   11.0765   11.1278 C.ar    1  LIG1       -0.0614
     48 H           0.3995   11.8413   10.6144 H       1  LIG1        0.0618
     49 C           0.5133   11.1551   12.4915 C.ar    1  LIG1       -0.0617
     50 H           0.3687   11.9751   12.9060 H       1  LIG1        0.0618
     51 C           0.7044   10.0483   13.2384 C.ar    1  LIG1       -0.0614
     52 H           0.6980   10.1067   14.1679 H       1  LIG1        0.0618
     53 C           0.9108    8.8289   12.6255 C.ar    1  LIG1       -0.0568
     54 H           1.0364    8.0705   13.1469 H       1  LIG1        0.0621
     55 C           0.9363    6.9053    6.1616 C.3     1  LIG1       -0.0409
     56 H           1.7546    6.9754    5.6672 H       1  LIG1        0.0249
     57 H           0.3860    7.6711    5.9826 H       1  LIG1        0.0249
     58 H           0.4709    6.1076    5.8995 H       1  LIG1        0.0249
     59 C          -1.3799    4.5791   12.4279 C.2     1  LIG1        0.3405
     60 C          -3.5997    3.7060   12.6031 C.3     1  LIG1        0.0900
     61 H          -3.3603    3.5785   13.5341 H       1  LIG1        0.0695
     62 H          -4.4776    4.1160   12.5704 H       1  LIG1        0.0695
     63 C          -3.6364    2.4388   11.9395 C.3     1  LIG1       -0.0306
     64 H          -4.2785    1.8705   12.3697 H       1  LIG1        0.0262
     65 H          -2.7686    2.0309   11.9796 H       1  LIG1        0.0262
     66 H          -3.8862    2.5663   11.0217 H       1  LIG1        0.0262
@<TRIPOS>BOND
     1    56    55    1
     2    58    55    1
     3    57    55    1
     4    55    19    1
     5    32    30    1
     6    22    21    1
     7    30    31    1
     8    30     2    1
     9    30    27    1
    10    19    20    1
    11    19     2    1
    12    19    18    1
    13    21     2    1
    14    21    23    1
    15    21    24    1
    16    28    27    1
    17     1    18    2
    18     8    27    1
    19     8    24    1
    20    26    24    1
    21    27    29    1
    22    24    25    1
    23    18    17   am
    24    43    42    1
    25    46    45    1
    26    17     3    1
    27    17    15    1
    28     4     3    1
    29    41    40    1
    30    16    15    1
    31    42    40   ar
    32    42    33   ar
    33    45    47   ar
    34    45    44   ar
    35     3    44    1
    36     3     5    1
    37    40    38   ar
    38    48    47    1
    39    15    33    1
    40    15    13    1
    41     6     5    1
    42    66    63    1
    43    33    34   ar
    44    47    49   ar
    45    44    53   ar
    46     5     7    1
    47     5    11    1
    48    13    11    2
    49    13    59    1
    50    38    39    1
    51    38    36   ar
    52    63    65    1
    53    63    64    1
    54    63    60    1
    55    14    59    1
    56    14    60    1
    57    11     9    1
    58    59    12    2
    59    34    36   ar
    60    34    35    1
    61    49    50    1
    62    49    51   ar
    63    62    60    1
    64    60    61    1
    65    53    54    1
    66    53    51   ar
    67    36    37    1
    68     9    10    1
    69    51    52    1
