@<TRIPOS>MOLECULE
4-Methyl-<i>N</i>-(3-methylphenyl)benzenesulfonamide
 33 34 0 0 0
SMALL
GASTEIGER

@<TRIPOS>ATOM
      1 C           0.4097    3.9042    0.6252 C.ar    1  LIG1        0.1085
      2 C          -0.8515    4.0682    1.1666 C.ar    1  LIG1       -0.0348
      3 H          -1.2351    4.9132    1.2213 H       1  LIG1        0.0637
      4 C          -1.5276    2.9633    1.6244 C.ar    1  LIG1       -0.0570
      5 H          -2.3761    3.0737    1.9888 H       1  LIG1        0.0621
      6 C          -0.9977    1.7132    1.5603 C.ar    1  LIG1       -0.0503
      7 C           0.2740    1.5666    1.0518 C.ar    1  LIG1       -0.0570
      8 H           0.6649    0.7245    1.0251 H       1  LIG1        0.0621
      9 C           0.9667    2.6512    0.5860 C.ar    1  LIG1       -0.0348
     10 H           1.8224    2.5379    0.2403 H       1  LIG1        0.0637
     11 C           2.1221    6.0412    2.4130 C.ar    1  LIG1        0.0483
     12 C           3.0189    4.9998    2.5434 C.ar    1  LIG1       -0.0364
     13 H           3.1895    4.4399    1.8206 H       1  LIG1        0.0639
     14 C           3.6677    4.7869    3.7520 C.ar    1  LIG1       -0.0487
     15 C           3.4024    5.6363    4.8051 C.ar    1  LIG1       -0.0587
     16 H           3.8359    5.5071    5.6166 H       1  LIG1        0.0620
     17 C           2.5147    6.6613    4.6730 C.ar    1  LIG1       -0.0597
     18 H           2.3526    7.2232    5.3964 H       1  LIG1        0.0618
     19 C           1.8563    6.8768    3.4837 C.ar    1  LIG1       -0.0393
     20 H           1.2431    7.5717    3.4009 H       1  LIG1        0.0636
     21 C          -1.7949    0.5111    1.9995 C.3     1  LIG1       -0.0397
     22 H          -2.4374    0.2889    1.3214 H       1  LIG1        0.0278
     23 H          -2.2508    0.7129    2.8190 H       1  LIG1        0.0278
     24 H          -1.2036   -0.2323    2.1369 H       1  LIG1        0.0278
     25 C           4.6138    3.6385    3.8988 C.3     1  LIG1       -0.0397
     26 H           5.0833    3.5020    3.0726 H       1  LIG1        0.0278
     27 H           4.1232    2.8443    4.1217 H       1  LIG1        0.0278
     28 H           5.2450    3.8301    4.5969 H       1  LIG1        0.0278
     29 N           1.4723    6.3246    1.1894 N.pl3   1  LIG1       -0.2162
     30 H           0.8677    6.8965    1.2814 H       1  LIG1        0.1737
     31 O           2.5164    4.8305   -0.5020 O.2     1  LIG1       -0.1500
     32 O           0.4064    5.9792   -0.9515 O.2     1  LIG1       -0.1500
     33 S           1.2619    5.2858   -0.0338 S.O2    1  LIG1        0.0723
@<TRIPOS>BOND
     1    32    33    2
     2    31    33    2
     3    33     1    1
     4    33    29    1
     5    10     9    1
     6     9     1   ar
     7     9     7   ar
     8     1     2   ar
     9     8     7    1
    10     7     6   ar
    11     2     3    1
    12     2     4   ar
    13    29    30    1
    14    29    11    1
    15    22    21    1
    16     6     4   ar
    17     6    21    1
    18     4     5    1
    19    13    12    1
    20    21    24    1
    21    21    23    1
    22    11    12   ar
    23    11    19   ar
    24    12    14   ar
    25    26    25    1
    26    20    19    1
    27    19    17   ar
    28    14    25    1
    29    14    15   ar
    30    25    27    1
    31    25    28    1
    32    17    15   ar
    33    17    18    1
    34    15    16    1
