@<TRIPOS>MOLECULE
3-(2-Fluorophenyl)-1-(4-methoxyphenyl)prop-2-en-1-one
 32 33 0 0 0
SMALL
GASTEIGER

@<TRIPOS>ATOM
      1 C           1.0619    0.8156    7.4751 C.ar    1  LIG1        0.0219
      2 C           1.1940    0.5023    6.0352 C.2     1  LIG1        0.1861
      3 O           1.5430   -0.6175    5.6700 O.2     1  LIG1       -0.2873
      4 C           0.4996    2.2855    9.3115 C.ar    1  LIG1       -0.0193
      5 H           0.2019    3.1139    9.6103 H       1  LIG1        0.0654
      6 C           0.6209    2.0374    7.9585 C.ar    1  LIG1       -0.0475
      7 H           0.4001    2.7094    7.3543 H       1  LIG1        0.0626
      8 C           0.8243    1.2926   10.2142 C.ar    1  LIG1        0.1201
      9 C           0.6453    1.2311    3.7768 C.2     1  LIG1       -0.0482
     10 H           0.7667    0.3394    3.5437 H       1  LIG1        0.0625
     11 C           0.8624    1.5391    5.0348 C.2     1  LIG1       -0.0137
     12 H           0.8062    2.4286    5.3032 H       1  LIG1        0.0656
     13 O           0.7405    1.4227   11.5643 O.3     1  LIG1       -0.4951
     14 C           0.2335    2.1313    2.7068 C.ar    1  LIG1        0.0103
     15 C           1.3725   -0.1727    8.4116 C.ar    1  LIG1       -0.0475
     16 H           1.6631   -1.0048    8.1177 H       1  LIG1        0.0626
     17 F          -0.3686    0.2724    1.4097 F       1  LIG1       -0.2049
     18 C           1.2577    0.0607    9.7515 C.ar    1  LIG1       -0.0193
     19 H           1.4716   -0.6113   10.3581 H       1  LIG1        0.0654
     20 C           0.2787    3.5260    2.8024 C.ar    1  LIG1       -0.0519
     21 H           0.6423    3.9198    3.5624 H       1  LIG1        0.0624
     22 C          -0.2995    1.6237    1.5329 C.ar    1  LIG1        0.1305
     23 C          -0.2019    4.3236    1.7979 C.ar    1  LIG1       -0.0610
     24 H          -0.1691    5.2485    1.8867 H       1  LIG1        0.0618
     25 C           0.3688    2.6836   12.1052 C.3     1  LIG1        0.0788
     26 H           0.3465    2.6265   13.0641 H       1  LIG1        0.0660
     27 H          -0.5000    2.9282   11.7794 H       1  LIG1        0.0660
     28 H           1.0089    3.3472   11.8383 H       1  LIG1        0.0660
     29 C          -0.7839    2.3980    0.5129 C.ar    1  LIG1       -0.0259
     30 H          -1.1363    2.0096   -0.2545 H       1  LIG1        0.0646
     31 C          -0.7354    3.7628    0.6532 C.ar    1  LIG1       -0.0590
     32 H          -1.0625    4.3111   -0.0248 H       1  LIG1        0.0618
@<TRIPOS>BOND
     1    30    29    1
     2    32    31    1
     3    29    31   ar
     4    29    22   ar
     5    31    23   ar
     6    17    22    1
     7    22    14   ar
     8    23    24    1
     9    23    20   ar
    10    14    20   ar
    11    14     9    1
    12    20    21    1
    13    10     9    1
    14     9    11    2
    15    11    12    1
    16    11     2    1
    17     3     2    2
    18     2     1    1
    19     7     6    1
    20     1     6   ar
    21     1    15   ar
    22     6     4   ar
    23    16    15    1
    24    15    18   ar
    25     4     5    1
    26     4     8   ar
    27    18     8   ar
    28    18    19    1
    29     8    13    1
    30    13    25    1
    31    27    25    1
    32    28    25    1
    33    25    26    1
