@<TRIPOS>MOLECULE
4-(Methylsulfonyl)piperazin-1-ium chloride
 16 14 0 0 0
SMALL
GASTEIGER

@<TRIPOS>ATOM
      1 CL          0.4621    2.2774    7.3323 Cl      1  LIG1        0.0000
      2 S           3.3223    2.2774    4.4409 S.3     2  LIG2        0.0442
      3 N           4.9368    2.2774    0.2833 N.3     2  LIG2       -0.3287
      4 N           4.2018    2.2774    3.0467 N.3     2  LIG2       -0.1561
      5 O           3.6065    1.0381    5.1186 O.3     2  LIG2       -0.1447
      6 C           5.0768    1.0496    1.1143 C.3     2  LIG2        0.0082
      7 C           4.0620    1.0444    2.2391 C.3     2  LIG2        0.0397
      8 C           1.6220    2.2774    3.9785 C.3     2  LIG2        0.0385
      9 H           4.9233    0.2870    0.5642 H       2  LIG2        0.0435
     10 H           5.9905    1.0804    1.4477 H       2  LIG2        0.0435
     11 H           3.1599    0.9265    1.8604 H       2  LIG2        0.0464
     12 H           4.2253    0.3052    2.7886 H       2  LIG2        0.0464
     13 H           1.0952    2.2774    4.7549 H       2  LIG2        0.0413
     14 H           1.4469    3.0800    3.4995 H       2  LIG2        0.0413
     15 H           5.5763    2.2774   -0.3766 H       2  LIG2        0.1183
     16 H           4.1028    2.2774   -0.1334 H       2  LIG2        0.1183
@<TRIPOS>BOND
     1    15     3    1
     2    16     3    1
     3     3     6    1
     4     9     6    1
     5     6    10    1
     6     6     7    1
     7    11     7    1
     8     7    12    1
     9     7     4    1
    10     4     2    1
    11    14     8    1
    12     8     2    1
    13     8    13    1
    14     2     5    1
