@<TRIPOS>MOLECULE
6\b-Acetoxy-1\a,7\b,11\b,15\b-tetrahydroxy-7\a,20-epoxy-<i>ent</i>-kaur-16-ene
 61 65 0 0 0
SMALL
GASTEIGER

@<TRIPOS>ATOM
      1 O           6.9834    1.6126    2.9473 O.3     1  LIG1       -0.3445
      2 O           3.8985    4.1648    1.1474 O.3     1  LIG1       -0.3911
      3 O           7.4486    3.6095    5.9535 O.3     1  LIG1       -0.4558
      4 O           8.8876    1.8946    4.1643 O.3     1  LIG1       -0.3613
      5 O           5.6552    6.0154    1.0337 O.3     1  LIG1       -0.3915
      6 O           8.4986    5.7803    4.5817 O.3     1  LIG1       -0.3868
      7 O           7.7055    1.9073    7.4280 O.2     1  LIG1       -0.2512
      8 C           4.0754    4.0467    2.5654 C.3     1  LIG1        0.0637
      9 H           3.9611    4.9580    2.9600 H       1  LIG1        0.0600
     10 C           2.9352    3.1835    3.0702 C.3     1  LIG1       -0.0257
     11 H           3.0291    2.2669    2.7078 H       1  LIG1        0.0290
     12 H           2.0737    3.5531    2.7510 H       1  LIG1        0.0290
     13 C           2.9332    3.1308    4.5912 C.3     1  LIG1       -0.0451
     14 H           2.1693    2.5798    4.8961 H       1  LIG1        0.0271
     15 H           2.8085    4.0461    4.9468 H       1  LIG1        0.0271
     16 C           4.2333    2.5444    5.1562 C.3     1  LIG1       -0.0278
     17 C           5.4408    3.3296    4.5384 C.3     1  LIG1        0.0169
     18 H           5.4014    4.2482    4.9319 H       1  LIG1        0.0350
     19 C           6.7861    2.7339    4.9883 C.3     1  LIG1        0.1609
     20 H           6.6164    1.8486    5.4215 H       1  LIG1        0.0792
     21 C           7.7015    2.5237    3.7895 C.3     1  LIG1        0.2143
     22 C           8.0127    3.8133    3.0157 C.3     1  LIG1        0.0642
     23 C           6.6538    4.5264    2.6712 C.3     1  LIG1        0.0089
     24 H           6.5579    5.3136    3.2810 H       1  LIG1        0.0341
     25 C           5.4713    3.5284    2.9832 C.3     1  LIG1        0.0329
     26 C           6.7120    5.0581    1.2166 C.3     1  LIG1        0.0600
     27 H           6.5541    4.2916    0.5941 H       1  LIG1        0.0596
     28 C           8.0479    5.7092    0.8513 C.3     1  LIG1       -0.0199
     29 H           8.0960    6.6032    1.2748 H       1  LIG1        0.0296
     30 H           8.0853    5.8373   -0.1299 H       1  LIG1        0.0296
     31 C           9.2771    4.8720    1.2986 C.3     1  LIG1       -0.0146
     32 H           9.9815    4.8320    0.5896 H       1  LIG1        0.0347
     33 C           8.8148    3.4710    1.7315 C.3     1  LIG1       -0.0326
     34 H           9.5833    2.8786    1.9286 H       1  LIG1        0.0279
     35 H           8.2405    3.0481    1.0449 H       1  LIG1        0.0279
     36 C           9.0406    4.7612    3.7301 C.3     1  LIG1        0.0873
     37 H           9.6739    4.2015    4.2646 H       1  LIG1        0.0648
     38 C           9.8131    5.4217    2.5985 C.2     1  LIG1       -0.0446
     39 C          10.7815    6.3110    2.7500 C.2     1  LIG1       -0.0967
     40 H          11.2179    6.6719    1.9883 H       1  LIG1        0.0535
     41 H          11.0402    6.5878    3.6213 H       1  LIG1        0.0535
     42 C           4.2685    2.7806    6.6751 C.3     1  LIG1       -0.0594
     43 H           3.5315    2.2929    7.0993 H       1  LIG1        0.0235
     44 H           4.1747    3.7385    6.8590 H       1  LIG1        0.0235
     45 H           5.1213    2.4610    7.0351 H       1  LIG1        0.0235
     46 C           4.2555    1.0120    4.9120 C.3     1  LIG1       -0.0594
     47 H           3.5306    0.5897    5.4185 H       1  LIG1        0.0235
     48 H           5.1165    0.6471    5.2065 H       1  LIG1        0.0235
     49 H           4.1338    0.8319    3.9571 H       1  LIG1        0.0235
     50 C           5.8375    2.2055    2.2959 C.3     1  LIG1        0.0598
     51 H           5.0687    1.5824    2.3406 H       1  LIG1        0.0567
     52 H           6.0447    2.3709    1.3419 H       1  LIG1        0.0567
     53 C           7.9569    3.0287    7.0791 C.2     1  LIG1        0.3044
     54 C           8.8769    3.9727    7.7904 C.3     1  LIG1        0.0332
     55 H           9.7226    4.0367    7.2993 H       1  LIG1        0.0342
     56 H           9.0492    3.6405    8.6965 H       1  LIG1        0.0342
     57 H           8.4608    4.8586    7.8412 H       1  LIG1        0.0342
     58 H           5.8261    6.3843    0.3254 H       1  LIG1        0.2098
     59 H           8.1388    5.4170    5.2110 H       1  LIG1        0.2102
     60 H           4.3330    4.8700    0.9434 H       1  LIG1        0.2098
     61 H           8.7049    1.1074    4.3049 H       1  LIG1        0.2129
@<TRIPOS>BOND
     1    30    28    1
     2    58     5    1
     3    32    31    1
     4    27    26    1
     5    28    26    1
     6    28    29    1
     7    28    31    1
     8    60     2    1
     9     5    26    1
    10    35    33    1
    11     2     8    1
    12    26    23    1
    13    31    33    1
    14    31    38    1
    15    52    50    1
    16    33    34    1
    17    33    22    1
    18    40    39    1
    19    50    51    1
    20    50     1    1
    21    50    25    1
    22     8     9    1
    23     8    25    1
    24     8    10    1
    25    38    39    2
    26    38    36    1
    27    23    25    1
    28    23    22    1
    29    23    24    1
    30    11    10    1
    31    39    41    1
    32    12    10    1
    33     1    21    1
    34    25    17    1
    35    22    36    1
    36    22    21    1
    37    10    13    1
    38    36    37    1
    39    36     6    1
    40    21     4    1
    41    21    19    1
    42    49    46    1
    43     4    61    1
    44    17    18    1
    45    17    19    1
    46    17    16    1
    47     6    59    1
    48    13    14    1
    49    13    15    1
    50    13    16    1
    51    46    16    1
    52    46    48    1
    53    46    47    1
    54    19    20    1
    55    19     3    1
    56    16    42    1
    57     3    53    1
    58    42    44    1
    59    42    45    1
    60    42    43    1
    61    53     7    2
    62    53    54    1
    63    55    54    1
    64    54    57    1
    65    54    56    1
