@<TRIPOS>MOLECULE
4-Chloro-<i>N</i>-[4-(diethylamino)benzylidene]aniline
 78 80 0 0 0
SMALL
GASTEIGER

@<TRIPOS>ATOM
      1 CL          9.8599   -4.7211   13.4763 Cl      1  LIG1       -0.0835
      2 CL          9.0385   13.4411    7.3528 Cl      2  LIG2       -0.0835
      3 N          10.2627    9.3621    3.2430 N.2     2  LIG2       -0.2550
      4 N          14.2238    5.0069    7.3671 N.pl3   1  LIG1       -0.3304
      5 C          11.1218    7.2838    1.3607 C.ar    2  LIG2       -0.0514
      6 H          11.0124    8.1305    0.9919 H       2  LIG2        0.0624
      7 C          11.6072    4.9267    1.0415 C.ar    2  LIG2        0.0297
      8 C          14.1910    2.6438    7.9058 C.ar    1  LIG1       -0.0401
      9 H          14.8478    2.4805    7.2676 H       1  LIG1        0.0636
     10 C          11.4658    6.2396    0.5436 C.ar    2  LIG2       -0.0401
     11 H          11.6104    6.3993   -0.3613 H       2  LIG2        0.0636
     12 N          12.6190   -0.4838   10.3985 N.2     1  LIG1       -0.2550
     13 C          13.7007    1.6013    8.6401 C.ar    1  LIG1       -0.0514
     14 H          14.0419    0.7476    8.4986 H       1  LIG1        0.0624
     15 C          13.7258    3.9615    8.0910 C.ar    1  LIG1        0.0297
     16 C          12.1455    0.6934   10.3716 C.2     1  LIG1        0.0354
     17 H          11.3892    0.8673   10.8845 H       1  LIG1        0.0836
     18 N          11.8919    3.8684    0.2232 N.pl3   2  LIG2       -0.3304
     19 C          10.5971    8.1961    3.6269 C.2     2  LIG2        0.0354
     20 H          10.6292    8.0317    4.5416 H       2  LIG2        0.0836
     21 C          12.7000    1.7837    9.5982 C.ar    1  LIG1       -0.0068
     22 C          12.7150    4.1424    9.0638 C.ar    1  LIG1       -0.0401
     23 H          12.3757    4.9942    9.2195 H       1  LIG1        0.0636
     24 C          10.9301    7.1099    2.7324 C.ar    2  LIG2       -0.0068
     25 C          11.4229    4.7608    2.4309 C.ar    2  LIG2       -0.0401
     26 H          11.5263    3.9170    2.8075 H       2  LIG2        0.0636
     27 C          10.0127   10.3390    4.2399 C.ar    2  LIG2        0.0639
     28 C          12.2309    3.0882    9.7764 C.ar    1  LIG1       -0.0514
     29 H          11.5625    3.2421   10.4045 H       1  LIG1        0.0624
     30 C          11.9239   -1.4740   11.1318 C.ar    1  LIG1        0.0639
     31 C          11.0960    5.8117    3.2294 C.ar    2  LIG2       -0.0514
     32 H          10.9780    5.6622    4.1395 H       2  LIG2        0.0624
     33 C           9.4303   12.2565    6.1389 C.ar    2  LIG2        0.0411
     34 C          12.6092   -2.2140   12.0800 C.ar    1  LIG1       -0.0349
     35 H          13.5115   -2.0451   12.2271 H       1  LIG1        0.0639
     36 C          10.6514   -3.4685   12.5612 C.ar    1  LIG1        0.0411
     37 C          10.9202   10.6451    5.2348 C.ar    2  LIG2       -0.0349
     38 H          11.7351   10.1974    5.2642 H       2  LIG2        0.0639
     39 C          10.6377   11.6042    6.1860 C.ar    2  LIG2       -0.0414
     40 H          11.2573   11.8071    6.8495 H       2  LIG2        0.0633
     41 C           8.5220   11.9820    5.1399 C.ar    2  LIG2       -0.0414
     42 H           7.7094   12.4331    5.1101 H       2  LIG2        0.0633
     43 C          11.9778   -3.1931   12.8069 C.ar    1  LIG1       -0.0414
     44 H          12.4436   -3.6670   13.4582 H       1  LIG1        0.0633
     45 C          11.9850    2.5076    0.7445 C.3     2  LIG2        0.0093
     46 H          11.8123    1.8851    0.0213 H       2  LIG2        0.0461
     47 H          11.2918    2.3826    1.4099 H       2  LIG2        0.0461
     48 C           8.8221   11.0377    4.1885 C.ar    2  LIG2       -0.0349
     49 H           8.2179   10.8680    3.5018 H       2  LIG2        0.0639
     50 C          10.5941   -1.7810   10.8969 C.ar    1  LIG1       -0.0349
     51 H          10.1225   -1.3080   10.2504 H       1  LIG1        0.0639
     52 C          12.1942    4.0718   -1.1891 C.3     2  LIG2        0.0093
     53 H          11.5578    4.7057   -1.5552 H       2  LIG2        0.0461
     54 H          12.0749    3.2316   -1.6579 H       2  LIG2        0.0461
     55 C          13.7847    6.3822    7.6025 C.3     1  LIG1        0.0093
     56 H          14.4950    6.9851    7.3349 H       1  LIG1        0.0461
     57 H          13.6414    6.5033    8.5535 H       1  LIG1        0.0461
     58 C          15.1488    4.7774    6.2648 C.3     1  LIG1        0.0093
     59 H          15.8464    4.1723    6.5626 H       1  LIG1        0.0461
     60 H          15.5700    5.6194    6.0312 H       1  LIG1        0.0461
     61 C           9.9593   -2.7752   11.6037 C.ar    1  LIG1       -0.0414
     62 H           9.0664   -2.9745   11.4336 H       1  LIG1        0.0633
     63 C          14.5010    4.1995    5.0324 C.3     1  LIG1       -0.0494
     64 H          15.1635    4.0823    4.3485 H       1  LIG1        0.0245
     65 H          13.8203    4.7984    4.7187 H       1  LIG1        0.0245
     66 H          14.1067    3.3505    5.2465 H       1  LIG1        0.0245
     67 C          13.5857    4.5780   -1.4516 C.3     2  LIG2       -0.0494
     68 H          13.7124    4.6908   -2.3965 H       2  LIG2        0.0245
     69 H          14.2239    3.9450   -1.1159 H       2  LIG2        0.0245
     70 H          13.7088    5.4218   -1.0096 H       2  LIG2        0.0245
     71 C          12.5210    6.7683    6.8687 C.3     1  LIG1       -0.0494
     72 H          12.2953    7.6785    7.0763 H       1  LIG1        0.0245
     73 H          11.8033    6.1912    7.1400 H       1  LIG1        0.0245
     74 H          12.6599    6.6817    5.9232 H       1  LIG1        0.0245
     75 C          13.3161    2.1701    1.3649 C.3     2  LIG2       -0.0494
     76 H          13.2986    1.2669    1.6898 H       2  LIG2        0.0245
     77 H          13.4909    2.7690    2.0937 H       2  LIG2        0.0245
     78 H          14.0094    2.2593    0.7050 H       2  LIG2        0.0245
@<TRIPOS>BOND
     1    68    67    1
     2    54    52    1
     3    53    52    1
     4    67    52    1
     5    67    69    1
     6    67    70    1
     7    52    18    1
     8    11    10    1
     9    46    45    1
    10    18    45    1
    11    18     7    1
    12    10     7   ar
    13    10     5   ar
    14    78    75    1
    15    45    75    1
    16    45    47    1
    17     6     5    1
    18     7    25   ar
    19     5    24   ar
    20    75    76    1
    21    75    77    1
    22    25    26    1
    23    25    31   ar
    24    24    31   ar
    25    24    19    1
    26    31    32    1
    27     3    19    2
    28     3    27    1
    29    49    48    1
    30    19    20    1
    31    48    27   ar
    32    48    41   ar
    33    27    37   ar
    34    64    63    1
    35    65    63    1
    36    63    66    1
    37    63    58    1
    38    42    41    1
    39    41    33   ar
    40    37    38    1
    41    37    39   ar
    42    74    71    1
    43    60    58    1
    44    33    39   ar
    45    33     2    1
    46    39    40    1
    47    58    59    1
    48    58     4    1
    49    71    72    1
    50    71    73    1
    51    71    55    1
    52     9     8    1
    53    56    55    1
    54     4    55    1
    55     4    15    1
    56    55    57    1
    57     8    15   ar
    58     8    13   ar
    59    15    22   ar
    60    14    13    1
    61    13    21   ar
    62    22    23    1
    63    22    28   ar
    64    21    28   ar
    65    21    16    1
    66    28    29    1
    67    51    50    1
    68    16    12    2
    69    16    17    1
    70    12    30    1
    71    50    30   ar
    72    50    61   ar
    73    30    34   ar
    74    62    61    1
    75    61    36   ar
    76    34    35    1
    77    34    43   ar
    78    36    43   ar
    79    36     1    1
    80    43    44    1
