@<TRIPOS>MOLECULE
5-Methyl-<i>N</i>'-(3-nitrobenzylidene)isoxazole-4-carbohydrazide
 30 31 0 0 0
SMALL
GASTEIGER

@<TRIPOS>ATOM
      1 C          -1.9028    9.4412    4.0786 C.3     1  LIG1       -0.0029
      2 H          -2.8178    9.2542    4.3003 H       1  LIG1        0.0309
      3 H          -1.4425    9.7557    4.8606 H       1  LIG1        0.0309
      4 H          -1.4810    8.6418    3.7581 H       1  LIG1        0.0309
      5 C          -1.8529   10.4780    3.0288 C.ar    1  LIG1        0.1463
      6 C          -1.6078   12.0844    1.5697 C.ar    1  LIG1        0.0825
      7 H          -1.2784   12.8455    1.1509 H       1  LIG1        0.0872
      8 C          -1.1023   11.5854    2.8066 C.ar    1  LIG1        0.0994
      9 C          -0.0378   12.0403    3.7109 C.2     1  LIG1        0.2637
     10 C           1.2129   15.0133    2.3749 C.3     1  LIG1        0.0931
     11 H           1.8548   15.1136    3.0405 H       1  LIG1        0.0564
     12 C           1.1454   16.0025    1.3071 C.ar    1  LIG1       -0.0231
     13 C           0.2599   15.8979    0.2260 C.ar    1  LIG1       -0.0568
     14 H          -0.3410   15.1892    0.1895 H       1  LIG1        0.0621
     15 C           0.2712   16.8344   -0.7819 C.ar    1  LIG1       -0.0593
     16 H          -0.3187   16.7492   -1.4966 H       1  LIG1        0.0618
     17 C           1.1491   17.8990   -0.7432 C.ar    1  LIG1       -0.0315
     18 H           1.1610   18.5336   -1.4230 H       1  LIG1        0.0640
     19 C           2.0076   17.9947    0.3313 C.ar    1  LIG1        0.1265
     20 C           2.0218   17.0749    1.3564 C.ar    1  LIG1       -0.0266
     21 H           2.6099   17.1726    2.0700 H       1  LIG1        0.0643
     22 H           1.3024   13.3823    4.0715 H       1  LIG1        0.1709
     23 N          -2.5714   11.3681    1.0914 N.ar    1  LIG1       -0.0857
     24 N           0.6450   13.1759    3.4873 N.am    1  LIG1       -0.2287
     25 N           0.4208   14.0168    2.4274 N.3     1  LIG1       -0.1325
     26 N           2.9542   19.1140    0.3958 N.pl3   1  LIG1        0.0564
     27 O          -2.7430   10.3230    2.0335 O.2     1  LIG1       -0.3592
     28 O           0.2567   11.3812    4.7185 O.2     1  LIG1       -0.2687
     29 O           3.6061   19.2662    1.4124 O.2     1  LIG1       -0.1261
     30 O           3.0505   19.8473   -0.5655 O.2     1  LIG1       -0.1261
@<TRIPOS>BOND
     1    16    15    1
     2    18    17    1
     3    15    17   ar
     4    15    13   ar
     5    17    19   ar
     6    30    26    2
     7    14    13    1
     8    13    12   ar
     9    19    26    1
    10    19    20   ar
    11    26    29    2
    12    23     6   ar
    13    23    27   ar
    14     7     6    1
    15    12    20   ar
    16    12    10    1
    17    20    21    1
    18     6     8   ar
    19    27     5   ar
    20    10    25    1
    21    10    11    1
    22    25    24    1
    23     8     5   ar
    24     8     9    1
    25     5     1    1
    26    24     9   am
    27    24    22    1
    28     9    28    2
    29     4     1    1
    30     1     2    1
    31     1     3    1
