@<TRIPOS>MOLECULE
1-(2-Chloroacetyl)-3-methyl-2,6-diphenylpiperidin-4-one
 88 92 0 0 0
SMALL
GASTEIGER

@<TRIPOS>ATOM
      1 CL         14.5746    7.9599    4.6445 Cl      1  LIG1       -0.1156
      2 CL         12.6801    6.1865    1.4338 Cl      2  LIG2       -0.1156
      3 O          19.1120    2.2102    2.8240 O.2     1  LIG1       -0.2970
      4 O          16.6559    6.6075    6.1259 O.2     1  LIG1       -0.2743
      5 O           6.1523    7.5110    4.5307 O.2     2  LIG2       -0.2970
      6 O          10.1213    6.8512    0.3161 O.2     2  LIG2       -0.2743
      7 N          16.7012    4.6129    5.0341 N.am    1  LIG1       -0.2853
      8 N           9.2010    8.0395    2.0228 N.am    2  LIG2       -0.2853
      9 C          18.4207    2.7889    3.6289 C.2     1  LIG1        0.1403
     10 C          18.9406    3.9188    4.4521 C.3     1  LIG1        0.0290
     11 H          19.0564    4.6961    3.8838 H       1  LIG1        0.0363
     12 H          19.8106    3.6767    4.8039 H       1  LIG1        0.0363
     13 C          18.0240    4.2826    5.6088 C.3     1  LIG1        0.0585
     14 H          18.3757    5.1133    5.9934 H       1  LIG1        0.0555
     15 C          16.1046    3.6854    4.0327 C.3     1  LIG1        0.0610
     16 H          16.0854    4.1522    3.1712 H       1  LIG1        0.0557
     17 C          16.9653    2.4139    3.8573 C.3     1  LIG1        0.0375
     18 H          16.9241    1.9184    4.7015 H       1  LIG1        0.0396
     19 C          17.9441    3.2831    6.7417 C.ar    1  LIG1       -0.0266
     20 C          18.7095    2.1320    6.8184 C.ar    1  LIG1       -0.0568
     21 H          19.3310    1.9544    6.1487 H       1  LIG1        0.0621
     22 C          18.5734    1.2467    7.8618 C.ar    1  LIG1       -0.0614
     23 H          19.0994    0.4818    7.8937 H       1  LIG1        0.0618
     24 C          17.6646    1.4950    8.8494 C.ar    1  LIG1       -0.0617
     25 H          17.5529    0.8853    9.5437 H       1  LIG1        0.0618
     26 C          16.9157    2.6423    8.8183 C.ar    1  LIG1       -0.0614
     27 H          16.3085    2.8236    9.4990 H       1  LIG1        0.0618
     28 C          17.0682    3.5202    7.7750 C.ar    1  LIG1       -0.0568
     29 H          16.5623    4.3012    7.7667 H       1  LIG1        0.0621
     30 C          14.6685    3.3079    4.3854 C.ar    1  LIG1       -0.0263
     31 C          14.3350    2.8435    5.6380 C.ar    1  LIG1       -0.0568
     32 H          14.9938    2.7367    6.2858 H       1  LIG1        0.0621
     33 C          13.0084    2.5318    5.9340 C.ar    1  LIG1       -0.0614
     34 H          12.7838    2.2226    6.7819 H       1  LIG1        0.0618
     35 C          12.0378    2.6821    4.9811 C.ar    1  LIG1       -0.0617
     36 H          11.1524    2.4784    5.1821 H       1  LIG1        0.0618
     37 C          12.3653    3.1278    3.7440 C.ar    1  LIG1       -0.0614
     38 H          11.7036    3.2297    3.0990 H       1  LIG1        0.0618
     39 C          13.6626    3.4271    3.4398 C.ar    1  LIG1       -0.0568
     40 H          13.8744    3.7164    2.5819 H       1  LIG1        0.0621
     41 C          16.2058    5.8546    5.2762 C.2     1  LIG1        0.2312
     42 C          15.0485    6.2731    4.3808 C.3     1  LIG1        0.0991
     43 H          14.2887    5.6982    4.5544 H       1  LIG1        0.0525
     44 H          15.3054    6.1563    3.4535 H       1  LIG1        0.0525
     45 C          16.4203    1.4987    2.7756 C.3     1  LIG1       -0.0537
     46 H          17.0551    0.8034    2.5947 H       1  LIG1        0.0237
     47 H          16.2648    2.0066    1.9762 H       1  LIG1        0.0237
     48 H          15.5934    1.1088    3.0725 H       1  LIG1        0.0237
     49 C           9.3180    8.5764    3.4060 C.3     2  LIG2        0.0610
     50 H           9.6688    7.8562    3.9715 H       2  LIG2        0.0557
     51 C           7.9386    8.9762    3.9697 C.3     2  LIG2        0.0375
     52 H           7.6570    9.7896    3.5019 H       2  LIG2        0.0396
     53 C           6.9048    7.9121    3.6883 C.2     2  LIG2        0.1403
     54 C           6.8732    7.3831    2.2895 C.3     2  LIG2        0.0290
     55 H           5.9834    7.5160    1.9268 H       2  LIG2        0.0363
     56 H           7.0405    6.4283    2.3151 H       2  LIG2        0.0363
     57 C           7.8906    8.0338    1.3449 C.3     2  LIG2        0.0585
     58 H           7.9826    7.4216    0.5856 H       2  LIG2        0.0555
     59 C           7.5372    9.3786    0.7519 C.ar    2  LIG2       -0.0266
     60 C           6.3844   10.0702    1.0434 C.ar    2  LIG2       -0.0568
     61 H           5.7787    9.7126    1.6500 H       2  LIG2        0.0621
     62 C           6.1145   11.2858    0.4504 C.ar    2  LIG2       -0.0614
     63 H           5.3320   11.7403    0.6669 H       2  LIG2        0.0618
     64 C           6.9903   11.8284   -0.4568 C.ar    2  LIG2       -0.0617
     65 H           6.8131   12.6554   -0.8433 H       2  LIG2        0.0618
     66 C           8.1265   11.1405   -0.7857 C.ar    2  LIG2       -0.0614
     67 H           8.7208   11.4932   -1.4097 H       2  LIG2        0.0618
     68 C           8.3898    9.9299   -0.1937 C.ar    2  LIG2       -0.0568
     69 H           9.1595    9.4667   -0.4331 H       2  LIG2        0.0621
     70 C          10.2783    9.7473    3.5120 C.ar    2  LIG2       -0.0263
     71 C          11.2769    9.7486    4.4795 C.ar    2  LIG2       -0.0568
     72 H          11.3679    9.0098    5.0368 H       2  LIG2        0.0621
     73 C          12.1304   10.8127    4.6303 C.ar    2  LIG2       -0.0614
     74 H          12.7879   10.7879    5.2872 H       2  LIG2        0.0618
     75 C          12.0203   11.9029    3.8254 C.ar    2  LIG2       -0.0617
     76 H          12.6036   12.6206    3.9268 H       2  LIG2        0.0618
     77 C          11.0450   11.9352    2.8633 C.ar    2  LIG2       -0.0614
     78 H          10.9695   12.6790    2.3096 H       2  LIG2        0.0618
     79 C          10.1728   10.8698    2.7071 C.ar    2  LIG2       -0.0568
     80 H           9.5100   10.9083    2.0547 H       2  LIG2        0.0621
     81 C          10.2055    7.3074    1.4490 C.2     2  LIG2        0.2312
     82 C          11.4262    7.0715    2.3142 C.3     2  LIG2        0.0991
     83 H          11.1694    6.5661    3.1018 H       2  LIG2        0.0525
     84 H          11.7808    7.9245    2.6093 H       2  LIG2        0.0525
     85 C           8.0189    9.3078    5.4516 C.3     2  LIG2       -0.0537
     86 H           8.4503    8.5876    5.9176 H       2  LIG2        0.0237
     87 H           7.1336    9.4295    5.8006 H       2  LIG2        0.0237
     88 H           8.5234   10.1149    5.5713 H       2  LIG2        0.0237
@<TRIPOS>BOND
     1    67    66    1
     2    65    64    1
     3    66    64   ar
     4    66    68   ar
     5    64    62   ar
     6    69    68    1
     7    68    59   ar
     8     6    81    2
     9    62    63    1
    10    62    60   ar
    11    58    57    1
    12    59    60   ar
    13    59    57    1
    14    60    61    1
    15    57     8    1
    16    57    54    1
    17     2    82    1
    18    81     8   am
    19    81    82    1
    20    55    54    1
    21    47    45    1
    22     8    49    1
    23    80    79    1
    24    54    56    1
    25    54    53    1
    26    78    77    1
    27    82    84    1
    28    82    83    1
    29    40    39    1
    30    46    45    1
    31    79    77   ar
    32    79    70   ar
    33    45    48    1
    34    45    17    1
    35     3     9    2
    36    77    75   ar
    37    38    37    1
    38    16    15    1
    39    49    70    1
    40    49    51    1
    41    49    50    1
    42    39    37   ar
    43    39    30   ar
    44    44    42    1
    45    52    51    1
    46    70    71   ar
    47     9    17    1
    48     9    10    1
    49    53    51    1
    50    53     5    2
    51    37    35   ar
    52    75    76    1
    53    75    73   ar
    54    17    15    1
    55    17    18    1
    56    11    10    1
    57    51    85    1
    58    15    30    1
    59    15     7    1
    60    42    43    1
    61    42     1    1
    62    42    41    1
    63    30    31   ar
    64    10    12    1
    65    10    13    1
    66    71    73   ar
    67    71    72    1
    68    73    74    1
    69    35    36    1
    70    35    33   ar
    71     7    41   am
    72     7    13    1
    73    41     4    2
    74    85    88    1
    75    85    87    1
    76    85    86    1
    77    13    14    1
    78    13    19    1
    79    31    33   ar
    80    31    32    1
    81    33    34    1
    82    21    20    1
    83    19    20   ar
    84    19    28   ar
    85    20    22   ar
    86    29    28    1
    87    28    26   ar
    88    22    23    1
    89    22    24   ar
    90    26    24   ar
    91    26    27    1
    92    24    25    1
