@<TRIPOS>MOLECULE
2-[(<i>E</i>)-2-(4-Ethoxyphenyl)ethenyl]-1-methylpyridinium 4-bromobenzenesulfonate monohydrate
 54 54 0 0 0
SMALL
GASTEIGER

@<TRIPOS>ATOM
      1 BR          3.8577    7.6919    7.9560 Br      1  LIG1       -0.0503
      2 S           4.8474    3.6543    3.0427 S.3     1  LIG1        0.1396
      3 O          -0.8486    7.7145    6.6281 O.3     2  LIG2       -0.4922
      4 O           5.1712    4.4616    1.8797 O.2     1  LIG1       -0.1397
      5 O           5.9035    2.7466    3.4519 O.3     1  LIG1       -0.0427
      6 O           3.5500    2.9948    2.8998 O.2     1  LIG1       -0.1397
      7 N          -1.0045    0.1486    1.8300 N.pl3   2  LIG2       -0.3100
      8 C          -0.6461   -1.0172    1.2245 C.2     2  LIG2       -0.0069
      9 H          -1.3034   -1.5502    0.8380 H       2  LIG2        0.0780
     10 C           0.6569   -1.4212    1.1691 C.2     2  LIG2       -0.0623
     11 H           0.8839   -2.2272    0.7636 H       2  LIG2        0.0591
     12 C           1.6373   -0.6164    1.7243 C.3     2  LIG2        0.0084
     13 H           2.5316   -0.8660    1.6793 H       2  LIG2        0.0395
     14 C           1.2712    0.5630    2.3470 C.2     2  LIG2       -0.0549
     15 H           1.9284    1.1006    2.7268 H       2  LIG2        0.0597
     16 C          -0.0679    0.9650    2.4166 C.2     2  LIG2        0.0299
     17 C          -0.5214    2.2018    3.0728 C.2     2  LIG2       -0.0401
     18 H          -1.4036    2.4716    2.9566 H       2  LIG2        0.0636
     19 C           0.2895    2.9551    3.8311 C.2     2  LIG2       -0.0528
     20 H           1.1666    2.6632    3.9297 H       2  LIG2        0.0624
     21 C          -0.0787    4.1958    4.5197 C.ar    2  LIG2       -0.0247
     22 C           0.9121    4.8656    5.2468 C.ar    2  LIG2       -0.0511
     23 H           1.7759    4.5209    5.2678 H       2  LIG2        0.0625
     24 C           0.6279    6.0366    5.9405 C.ar    2  LIG2       -0.0194
     25 H           1.2974    6.4654    6.4234 H       2  LIG2        0.0654
     26 C          -0.6641    6.5683    5.9118 C.ar    2  LIG2        0.1205
     27 C          -1.6665    5.9076    5.1874 C.ar    2  LIG2       -0.0194
     28 H          -2.5294    6.2529    5.1630 H       2  LIG2        0.0654
     29 C          -1.3641    4.7327    4.5028 C.ar    2  LIG2       -0.0511
     30 H          -2.0339    4.2981    4.0243 H       2  LIG2        0.0625
     31 C          -2.4311    0.5161    1.8202 C.3     2  LIG2        0.0052
     32 H          -2.9387   -0.1838    1.4023 H       2  LIG2        0.0432
     33 H          -2.5472    1.3319    1.3279 H       2  LIG2        0.0432
     34 H          -2.7365    0.6392    2.7234 H       2  LIG2        0.0432
     35 C          -2.1290    8.3440    6.5744 C.3     2  LIG2        0.0868
     36 H          -2.8261    7.7171    6.8221 H       2  LIG2        0.0694
     37 H          -2.3091    8.6718    5.6800 H       2  LIG2        0.0694
     38 C          -2.0742    9.4974    7.5628 C.3     2  LIG2       -0.0307
     39 H          -2.9113    9.9672    7.5519 H       2  LIG2        0.0262
     40 H          -1.3674   10.0982    7.3154 H       2  LIG2        0.0262
     41 H          -1.9091    9.1559    8.4440 H       2  LIG2        0.0262
     42 C           4.6450    4.8090    4.3960 C.ar    1  LIG1        0.1197
     43 C           4.3533    6.1454    4.1477 C.ar    1  LIG1       -0.0333
     44 H           4.3155    6.4582    3.2742 H       1  LIG1        0.0638
     45 C           4.1175    7.0134    5.2066 C.ar    1  LIG1       -0.0459
     46 H           3.9192    7.9087    5.0515 H       1  LIG1        0.0629
     47 C           4.1846    6.5162    6.5018 C.ar    1  LIG1        0.0180
     48 C           4.4956    5.1765    6.7731 C.ar    1  LIG1       -0.0459
     49 H           4.5481    4.8643    7.6466 H       1  LIG1        0.0629
     50 C           4.7252    4.3268    5.6935 C.ar    1  LIG1       -0.0333
     51 H           4.9331    3.4327    5.8422 H       1  LIG1        0.0638
     52 O           2.7860    2.9382    0.0720 O.3     3  HOH3       -0.4105
     53 H           3.0905    2.9206    0.8650 H       0  HOH0        0.2052
     54 H           3.3661    2.5804   -0.4359 H       0  HOH0        0.2052
@<TRIPOS>BOND
     1    54    52    1
     2    52    53    1
     3    11    10    1
     4     9     8    1
     5    10     8    2
     6    10    12    1
     7     8     7    1
     8    33    31    1
     9    32    31    1
    10    13    12    1
    11    12    14    1
    12    31     7    1
    13    31    34    1
    14     7    16    1
    15     4     2    2
    16    14    16    2
    17    14    15    1
    18    16    17    1
    19     6     2    2
    20    18    17    1
    21     2     5    1
    22     2    42    1
    23    17    19    2
    24    44    43    1
    25    19    20    1
    26    19    21    1
    27    30    29    1
    28    43    42   ar
    29    43    45   ar
    30    42    50   ar
    31    29    21   ar
    32    29    27   ar
    33    21    22   ar
    34    46    45    1
    35    28    27    1
    36    27    26   ar
    37    45    47   ar
    38    22    23    1
    39    22    24   ar
    40    37    35    1
    41    50    51    1
    42    50    48   ar
    43    26    24   ar
    44    26     3    1
    45    24    25    1
    46    47    48   ar
    47    47     1    1
    48    35     3    1
    49    35    36    1
    50    35    38    1
    51    48    49    1
    52    40    38    1
    53    39    38    1
    54    38    41    1
