@<TRIPOS>MOLECULE
Methyl 2-methyl-3,5-dinitrobenzoate
 25 25 0 0 0
SMALL
GASTEIGER

@<TRIPOS>ATOM
      1 O           5.1090    5.8325    1.4416 O.3     1  LIG1       -0.4644
      2 O           6.4245    4.0532    1.3578 O.2     1  LIG1       -0.2450
      3 O           3.3532   -0.3893    2.5613 O.2     1  LIG1       -0.1261
      4 O           1.5485    0.1655    1.5244 O.2     1  LIG1       -0.1261
      5 O           0.1821    4.0815    4.5462 O.2     1  LIG1       -0.1261
      6 O           1.2856    5.8626    4.1500 O.2     1  LIG1       -0.1261
      7 N           2.5582    0.4327    2.1425 N.pl3   1  LIG1        0.0568
      8 N           1.1109    4.6672    4.0527 N.pl3   1  LIG1        0.0565
      9 C           4.1598    3.8028    2.0792 C.ar    1  LIG1        0.0662
     10 C           4.0076    2.4225    1.8655 C.ar    1  LIG1       -0.0062
     11 C           2.8368    1.8687    2.3832 C.ar    1  LIG1        0.1320
     12 C           1.8747    2.5552    3.0866 C.ar    1  LIG1       -0.0009
     13 C           2.0996    3.8904    3.2827 C.ar    1  LIG1        0.1291
     14 C           3.2031    4.5248    2.7797 C.ar    1  LIG1       -0.0171
     15 C           5.3611    4.5389    1.5863 C.2     1  LIG1        0.3393
     16 C           6.2179    6.6571    0.9892 C.3     1  LIG1        0.0820
     17 C           4.9772    1.6103    1.0713 C.3     1  LIG1       -0.0368
     18 H           1.1116    2.1347    3.4116 H       1  LIG1        0.0663
     19 H           3.3124    5.4394    2.9073 H       1  LIG1        0.0648
     20 H           6.9596    6.5527    1.5900 H       1  LIG1        0.0661
     21 H           5.9464    7.5776    0.9730 H       1  LIG1        0.0661
     22 H           6.4799    6.3847    0.1069 H       1  LIG1        0.0661
     23 H           5.6624    1.2725    1.6519 H       1  LIG1        0.0278
     24 H           5.3750    2.1609    0.3927 H       1  LIG1        0.0278
     25 H           4.5166    0.8763    0.6582 H       1  LIG1        0.0278
@<TRIPOS>BOND
     1    22    16    1
     2    24    17    1
     3    25    17    1
     4    21    16    1
     5    16     1    1
     6    16    20    1
     7    17    23    1
     8    17    10    1
     9     2    15    2
    10     1    15    1
    11     4     7    2
    12    15     9    1
    13    10     9   ar
    14    10    11   ar
    15     9    14   ar
    16     7    11    1
    17     7     3    2
    18    11    12   ar
    19    14    19    1
    20    14    13   ar
    21    12    13   ar
    22    12    18    1
    23    13     8    1
    24     8     6    2
    25     8     5    2
