@<TRIPOS>MOLECULE
5-Bromo-2-(4-fluorophenyl)-7-methyl-3-methylsulfinyl-1-benzofuran
 33 35 0 0 0
SMALL
GASTEIGER

@<TRIPOS>ATOM
      1 BR          1.2641    3.2985   11.0184 Br      1  LIG1       -0.0503
      2 S           0.3699    0.1390    5.7629 S.3     1  LIG1       -0.0106
      3 O           0.0216    4.0609    5.2317 O.2     1  LIG1       -0.4534
      4 O           1.4939   -0.2374    6.6679 O.3     1  LIG1       -0.1572
      5 F          -1.2596    2.2355   -0.6147 F       1  LIG1       -0.2055
      6 C           0.1949    1.8964    5.8432 C.ar    1  LIG1        0.0796
      7 C           0.4269    2.7051    7.0188 C.ar    1  LIG1        0.0369
      8 C           0.7108    2.4636    8.3674 C.ar    1  LIG1       -0.0358
      9 H           0.7768    1.5991    8.7051 H       1  LIG1        0.0636
     10 C           0.8886    3.5701    9.1690 C.ar    1  LIG1        0.0189
     11 C           0.8111    4.8882    8.6949 C.ar    1  LIG1       -0.0413
     12 H           0.9550    5.5956    9.2816 H       1  LIG1        0.0632
     13 C           0.5212    5.1529    7.3600 C.ar    1  LIG1       -0.0065
     14 C           0.3289    4.0239    6.5754 C.ar    1  LIG1        0.1398
     15 C          -0.0375    2.7504    4.8008 C.ar    1  LIG1        0.1510
     16 C          -0.3454    2.5952    3.3784 C.ar    1  LIG1        0.0186
     17 C          -0.8144    1.3864    2.8586 C.ar    1  LIG1       -0.0483
     18 H          -0.9350    0.6593    3.4254 H       1  LIG1        0.0625
     19 C          -1.1012    1.2569    1.5082 C.ar    1  LIG1       -0.0258
     20 H          -1.3886    0.4448    1.1580 H       1  LIG1        0.0646
     21 C          -0.9498    2.3530    0.7049 C.ar    1  LIG1        0.1234
     22 C          -0.5006    3.5677    1.1690 C.ar    1  LIG1       -0.0258
     23 H          -0.4119    4.2929    0.5940 H       1  LIG1        0.0646
     24 C          -0.1841    3.6846    2.5129 C.ar    1  LIG1       -0.0483
     25 H           0.1383    4.4924    2.8428 H       1  LIG1        0.0625
     26 C           0.3888    6.5366    6.8005 C.3     1  LIG1       -0.0362
     27 H           0.8323    6.5808    5.9501 H       1  LIG1        0.0279
     28 H           0.7912    7.1652    7.4046 H       1  LIG1        0.0279
     29 H          -0.5406    6.7490    6.6887 H       1  LIG1        0.0279
     30 C          -1.1339   -0.2951    6.6381 C.3     1  LIG1        0.0045
     31 H          -1.1733   -1.2475    6.7538 H       1  LIG1        0.0358
     32 H          -1.8949   -0.0035    6.1319 H       1  LIG1        0.0358
     33 H          -1.1390    0.1319    7.4976 H       1  LIG1        0.0358
@<TRIPOS>BOND
     1     5    21    1
     2    23    22    1
     3    21    22   ar
     4    21    19   ar
     5    20    19    1
     6    22    24   ar
     7    19    17   ar
     8    24    25    1
     9    24    16   ar
    10    17    16   ar
    11    17    18    1
    12    16    15    1
    13    15     3   ar
    14    15     6   ar
    15     3    14   ar
    16     2     6    1
    17     2    30    1
    18     2     4    1
    19     6     7   ar
    20    27    26    1
    21    32    30    1
    22    14     7   ar
    23    14    13   ar
    24    30    31    1
    25    30    33    1
    26    29    26    1
    27    26    13    1
    28    26    28    1
    29     7     8   ar
    30    13    11   ar
    31     8     9    1
    32     8    10   ar
    33    11    10   ar
    34    11    12    1
    35    10     1    1
