@<TRIPOS>MOLECULE
Dimethyl 11,13-dimethyl-16-[1,2-bis(methoxycarbonyl)ethenyl]-12-oxo-16,17-dioxa-18- azahexacyclo[7.5.1.1^1,4^.1^6,9^.1^10,14^.0^5,15^]octadeca- 2,7-diene-2,3-dicarboxylate
 68 73 0 0 0
SMALL
GASTEIGER

@<TRIPOS>ATOM
      1 O          10.4195    6.7450    2.7421 O.3     1  LIG1       -0.3578
      2 O          13.0540    6.6575    3.2387 O.3     1  LIG1       -0.3595
      3 O          11.8581    4.0604    1.2322 O.2     1  LIG1       -0.2967
      4 O           7.7747   10.0702    1.1389 O.2     1  LIG1       -0.2452
      5 O           9.9533   10.4172    0.7127 O.3     1  LIG1       -0.4646
      6 O           8.0312    8.6633    5.5598 O.2     1  LIG1       -0.2452
      7 O           7.5825   10.1544    3.9380 O.3     1  LIG1       -0.4646
      8 O          12.7032   11.2271   -2.5674 O.2     1  LIG1       -0.2456
      9 O          10.7570   10.6091   -3.5228 O.3     1  LIG1       -0.4648
     10 O          14.7807    9.2931   -1.5255 O.2     1  LIG1       -0.2435
     11 O          13.8099   10.4237    0.1704 O.3     1  LIG1       -0.4636
     12 N          12.2960    7.9008    0.0385 N.pl3   1  LIG1       -0.3106
     13 C          10.6770    7.8705    1.8797 C.3     1  LIG1        0.1275
     14 C           9.4666    8.7585    2.2206 C.2     1  LIG1        0.0827
     15 C           9.2104    8.5181    3.5214 C.2     1  LIG1        0.0781
     16 C          10.2609    7.4994    3.9605 C.3     1  LIG1        0.0980
     17 H          10.0195    6.9593    4.7660 H       1  LIG1        0.0653
     18 C          11.6000    8.2937    4.0702 C.3     1  LIG1        0.0284
     19 H          11.5182    9.1301    4.6122 H       1  LIG1        0.0362
     20 C          12.8543    7.4538    4.4309 C.3     1  LIG1        0.0840
     21 H          12.7863    6.9337    5.2815 H       1  LIG1        0.0644
     22 C          14.0418    8.4015    4.3475 C.2     1  LIG1       -0.0564
     23 H          14.5190    8.7857    5.0736 H       1  LIG1        0.0595
     24 C          14.2768    8.5835    3.0504 C.2     1  LIG1       -0.0519
     25 H          14.9671    9.1045    2.6551 H       1  LIG1        0.0599
     26 C          13.1973    7.7732    2.3321 C.3     1  LIG1        0.1136
     27 C          13.3782    7.3339    0.8636 C.3     1  LIG1        0.0663
     28 H          14.2495    7.6957    0.5324 H       1  LIG1        0.0538
     29 C          13.3850    5.7967    0.6728 C.3     1  LIG1        0.0365
     30 H          13.9581    5.3969    1.3876 H       1  LIG1        0.0394
     31 C          12.0011    5.1756    0.7735 C.2     1  LIG1        0.1427
     32 C          10.8179    5.9404    0.1874 C.3     1  LIG1        0.0365
     33 H           9.9819    5.6226    0.6355 H       1  LIG1        0.0394
     34 C          10.9516    7.4536    0.4210 C.3     1  LIG1        0.0671
     35 H          10.2896    7.9195   -0.1656 H       1  LIG1        0.0539
     36 C          11.8831    8.5667    2.5632 C.3     1  LIG1        0.0370
     37 H          11.9596    9.5385    2.3424 H       1  LIG1        0.0369
     38 C           8.9320    9.8083    1.3262 C.2     1  LIG1        0.3383
     39 C           9.5876   11.4425   -0.2353 C.3     1  LIG1        0.0820
     40 H          10.3992   11.8491   -0.6050 H       1  LIG1        0.0661
     41 H           9.0550   12.1296    0.2163 H       1  LIG1        0.0661
     42 H           9.0614   11.0442   -0.9600 H       1  LIG1        0.0661
     43 C           8.2226    9.1113    4.4498 C.2     1  LIG1        0.3380
     44 C           6.5423   10.7263    4.7680 C.3     1  LIG1        0.0820
     45 H           6.1005   11.4535    4.2826 H       1  LIG1        0.0661
     46 H           6.9395   11.0780    5.5925 H       1  LIG1        0.0661
     47 H           5.8849   10.0346    4.9908 H       1  LIG1        0.0661
     48 C          13.9971    5.4253   -0.6965 C.3     1  LIG1       -0.0539
     49 H          13.8005    4.4869   -0.8991 H       1  LIG1        0.0237
     50 H          14.9682    5.5559   -0.6659 H       1  LIG1        0.0237
     51 H          13.6114    5.9972   -1.3926 H       1  LIG1        0.0237
     52 C          10.6969    5.6665   -1.3277 C.3     1  LIG1       -0.0539
     53 H          10.7888    4.7053   -1.4940 H       1  LIG1        0.0237
     54 H          11.4037    6.1498   -1.8050 H       1  LIG1        0.0237
     55 H           9.8207    5.9707   -1.6461 H       1  LIG1        0.0237
     56 C          12.4843    8.8598   -0.9126 C.2     1  LIG1        0.1224
     57 C          11.5795    9.2428   -1.8483 C.2     1  LIG1        0.0505
     58 H          10.7977    8.7199   -1.9808 H       1  LIG1        0.0710
     59 C          11.7798   10.4359   -2.6539 C.2     1  LIG1        0.3337
     60 C          10.8108   11.8034   -4.3235 C.3     1  LIG1        0.0820
     61 H          10.0721   11.7980   -4.9688 H       1  LIG1        0.0661
     62 H          11.6640   11.8354   -4.8049 H       1  LIG1        0.0661
     63 H          10.7329   12.5892   -3.7435 H       1  LIG1        0.0661
     64 C          13.8336    9.5533   -0.8352 C.2     1  LIG1        0.3533
     65 C          15.0274   11.1744    0.3706 C.3     1  LIG1        0.0820
     66 H          14.8840   11.8510    1.0647 H       1  LIG1        0.0661
     67 H          15.2816   11.6143   -0.4665 H       1  LIG1        0.0661
     68 H          15.7436   10.5664    0.6507 H       1  LIG1        0.0661
@<TRIPOS>BOND
     1    61    60    1
     2    62    60    1
     3    60    63    1
     4    60     9    1
     5     9    59    1
     6    59     8    2
     7    59    57    1
     8    58    57    1
     9    57    56    2
    10    54    52    1
    11    55    52    1
    12    10    64    2
    13    53    52    1
    14    51    48    1
    15    52    32    1
    16    42    39    1
    17    56    64    1
    18    56    12    1
    19    49    48    1
    20    64    11    1
    21    48    50    1
    22    48    29    1
    23    40    39    1
    24    67    65    1
    25    39    41    1
    26    39     5    1
    27    35    34    1
    28    12    34    1
    29    12    27    1
    30    11    65    1
    31    32    34    1
    32    32    33    1
    33    32    31    1
    34    65    68    1
    35    65    66    1
    36    34    13    1
    37    28    27    1
    38    29    31    1
    39    29    27    1
    40    29    30    1
    41     5    38    1
    42    31     3    2
    43    27    26    1
    44     4    38    2
    45    38    14    1
    46    13    14    1
    47    13    36    1
    48    13     1    1
    49    14    15    2
    50    26    36    1
    51    26    24    1
    52    26     2    1
    53    37    36    1
    54    36    18    1
    55    25    24    1
    56     1    16    1
    57    24    22    2
    58     2    20    1
    59    15    16    1
    60    15    43    1
    61     7    43    1
    62     7    44    1
    63    16    18    1
    64    16    17    1
    65    18    20    1
    66    18    19    1
    67    45    44    1
    68    22    20    1
    69    22    23    1
    70    20    21    1
    71    43     6    2
    72    44    47    1
    73    44    46    1
