@<TRIPOS>MOLECULE
5-Bromo-2-(4-fluorophenyl)-3-methylsulfinyl-1-benzofuran
 30 32 0 0 0
SMALL
GASTEIGER

@<TRIPOS>ATOM
      1 BR          2.0378    5.5200    5.6314 Br      1  LIG1       -0.0503
      2 S           0.8000    1.5111    1.0740 S.3     1  LIG1       -0.0106
      3 F          -1.0874    2.3701   -5.4397 F       1  LIG1       -0.2055
      4 O           0.5468    5.2840   -0.1407 O.2     1  LIG1       -0.4536
      5 O           1.9211    1.2553    2.0116 O.3     1  LIG1       -0.1572
      6 C           0.6928    3.2611    0.8495 C.ar    1  LIG1        0.0796
      7 C           1.0182    4.2626    1.8379 C.ar    1  LIG1        0.0366
      8 C           1.3573    4.2536    3.1913 C.ar    1  LIG1       -0.0359
      9 H           1.4205    3.4602    3.6718 H       1  LIG1        0.0636
     10 C           1.5952    5.4815    3.7851 C.ar    1  LIG1        0.0187
     11 C           1.5157    6.6961    3.0965 C.ar    1  LIG1       -0.0442
     12 H           1.6953    7.4944    3.5393 H       1  LIG1        0.0630
     13 C           1.1698    6.7101    1.7538 C.ar    1  LIG1       -0.0177
     14 H           1.1041    7.5035    1.2738 H       1  LIG1        0.0655
     15 C           0.9309    5.4867    1.1699 C.ar    1  LIG1        0.1369
     16 C           0.4207    3.9221   -0.3169 C.ar    1  LIG1        0.1510
     17 C           0.0143    3.5029   -1.6522 C.ar    1  LIG1        0.0186
     18 C          -0.6930    2.3187   -1.8620 C.ar    1  LIG1       -0.0483
     19 H          -0.9212    1.7865   -1.1338 H       1  LIG1        0.0625
     20 C          -1.0600    1.9219   -3.1376 C.ar    1  LIG1       -0.0258
     21 H          -1.5176    1.1248   -3.2788 H       1  LIG1        0.0646
     22 C          -0.7263    2.7450   -4.1889 C.ar    1  LIG1        0.1234
     23 C          -0.0503    3.9320   -4.0272 C.ar    1  LIG1       -0.0258
     24 H           0.1491    4.4664   -4.7615 H       1  LIG1        0.0646
     25 C           0.3279    4.3164   -2.7514 C.ar    1  LIG1       -0.0483
     26 H           0.7887    5.1140   -2.6230 H       1  LIG1        0.0625
     27 C          -0.6994    1.2757    2.0179 C.3     1  LIG1        0.0045
     28 H          -0.7942    0.3468    2.2418 H       1  LIG1        0.0358
     29 H          -1.4537    1.5567    1.4956 H       1  LIG1        0.0358
     30 H          -0.6554    1.7961    2.8233 H       1  LIG1        0.0358
@<TRIPOS>BOND
     1     3    22    1
     2    24    23    1
     3    22    23   ar
     4    22    20   ar
     5    23    25   ar
     6    21    20    1
     7    20    18   ar
     8    25    26    1
     9    25    17   ar
    10    18    17   ar
    11    18    19    1
    12    17    16    1
    13    16     4   ar
    14    16     6   ar
    15     4    15   ar
    16     6     2    1
    17     6     7   ar
    18     2     5    1
    19     2    27    1
    20    15    13   ar
    21    15     7   ar
    22    14    13    1
    23    29    27    1
    24    13    11   ar
    25     7     8   ar
    26    27    28    1
    27    27    30    1
    28    11    12    1
    29    11    10   ar
    30     8     9    1
    31     8    10   ar
    32    10     1    1
