@<TRIPOS>MOLECULE
Phenyl piperidine-1-carboxylate
 30 31 0 0 0
SMALL
GASTEIGER

@<TRIPOS>ATOM
      1 O          -0.4809    5.3202    3.6841 O.3     1  LIG1       -0.4114
      2 O           1.4949    6.4247    3.5356 O.2     1  LIG1       -0.2258
      3 N           0.8501    5.4209    5.4666 N.am    1  LIG1       -0.2671
      4 C          -0.6873    5.2717    2.2966 C.ar    1  LIG1        0.1332
      5 C          -1.9247    5.6654    1.8587 C.ar    1  LIG1       -0.0192
      6 C          -2.2473    5.4778    0.5268 C.ar    1  LIG1       -0.0583
      7 C          -1.3466    4.9081   -0.3395 C.ar    1  LIG1       -0.0615
      8 C          -0.1058    4.5321    0.1145 C.ar    1  LIG1       -0.0583
      9 C           0.2402    4.7182    1.4439 C.ar    1  LIG1       -0.0192
     10 C           0.7133    5.7722    4.1818 C.2     1  LIG1        0.4082
     11 C          -0.1230    4.6628    6.2524 C.3     1  LIG1        0.0178
     12 C          -0.4994    5.4255    7.5051 C.3     1  LIG1       -0.0370
     13 C           0.7342    5.7961    8.3062 C.3     1  LIG1       -0.0502
     14 C           1.7280    6.5526    7.4494 C.3     1  LIG1       -0.0370
     15 C           2.0724    5.7784    6.1998 C.3     1  LIG1        0.0178
     16 H          -2.5350    6.0508    2.4452 H       1  LIG1        0.0654
     17 H          -3.0833    5.7406    0.2145 H       1  LIG1        0.0619
     18 H          -1.5758    4.7768   -1.2312 H       1  LIG1        0.0618
     19 H           0.5056    4.1510   -0.4733 H       1  LIG1        0.0619
     20 H           1.0825    4.4737    1.7534 H       1  LIG1        0.0654
     21 H           0.2551    3.8035    6.4963 H       1  LIG1        0.0465
     22 H          -0.9173    4.5021    5.7191 H       1  LIG1        0.0465
     23 H          -1.0868    4.8796    8.0510 H       1  LIG1        0.0280
     24 H          -0.9798    6.2315    7.2602 H       1  LIG1        0.0280
     25 H           0.4748    6.3459    9.0622 H       1  LIG1        0.0266
     26 H           1.1507    4.9903    8.6495 H       1  LIG1        0.0266
     27 H           1.3521    7.4122    7.2025 H       1  LIG1        0.0280
     28 H           2.5362    6.7149    7.9609 H       1  LIG1        0.0280
     29 H           2.6467    6.3160    5.6321 H       1  LIG1        0.0465
     30 H           2.5552    4.9720    6.4397 H       1  LIG1        0.0465
@<TRIPOS>BOND
     1    18     7    1
     2    19     8    1
     3     7     8   ar
     4     7     6   ar
     5     8     9   ar
     6    17     6    1
     7     6     5   ar
     8     9    20    1
     9     9     4   ar
    10     5     4   ar
    11     5    16    1
    12     4     1    1
    13     2    10    2
    14     1    10    1
    15    10     3   am
    16     3    15    1
    17     3    11    1
    18    29    15    1
    19    22    11    1
    20    15    30    1
    21    15    14    1
    22    11    21    1
    23    11    12    1
    24    27    14    1
    25    24    12    1
    26    14    28    1
    27    14    13    1
    28    12    23    1
    29    12    13    1
    30    13    26    1
    31    13    25    1
