@<TRIPOS>MOLECULE
2-Chloro-7-methylquinoline-3-carbaldehyde
 22 23 0 0 0
SMALL
GASTEIGER

@<TRIPOS>ATOM
      1 CL          4.5932    2.7185    2.9096 Cl      1  LIG1       -0.0613
      2 O           3.0728    0.4781    6.2183 O.2     1  LIG1       -0.2956
      3 N           6.8236    2.6461    4.2256 N.ar    1  LIG1       -0.2346
      4 C           5.5798    2.2979    4.2960 C.ar    1  LIG1        0.1401
      5 C           4.9726    1.6021    5.3773 C.ar    1  LIG1        0.0516
      6 C           5.7834    1.3043    6.4390 C.ar    1  LIG1       -0.0394
      7 H           5.4284    0.8593    7.1750 H       1  LIG1        0.0632
      8 C           7.1381    1.6580    6.4376 C.ar    1  LIG1        0.0012
      9 C           8.0374    1.3744    7.4947 C.ar    1  LIG1       -0.0523
     10 H           7.7321    0.9357    8.2557 H       1  LIG1        0.0624
     11 C           9.3441    1.7383    7.4057 C.ar    1  LIG1       -0.0582
     12 H           9.9187    1.5450    8.1107 H       1  LIG1        0.0620
     13 C           9.8551    2.4121    6.2518 C.ar    1  LIG1       -0.0484
     14 C           8.9995    2.6981    5.2304 C.ar    1  LIG1       -0.0328
     15 H           9.3225    3.1419    4.4787 H       1  LIG1        0.0642
     16 C           7.6327    2.3342    5.2861 C.ar    1  LIG1        0.0729
     17 C           3.5533    1.2047    5.3926 C.2     1  LIG1        0.1531
     18 H           2.9990    1.5359    4.7236 H       1  LIG1        0.1082
     19 C          11.3057    2.8016    6.1879 C.3     1  LIG1       -0.0396
     20 H          11.4113    3.5448    5.5891 H       1  LIG1        0.0278
     21 H          11.8216    2.0581    5.8698 H       1  LIG1        0.0278
     22 H          11.6088    3.0505    7.0643 H       1  LIG1        0.0278
@<TRIPOS>BOND
     1     1     4    1
     2     3     4   ar
     3     3    16   ar
     4     4     5   ar
     5    15    14    1
     6    18    17    1
     7    14    16   ar
     8    14    13   ar
     9    16     8   ar
    10     5    17    1
    11     5     6   ar
    12    17     2    2
    13    20    19    1
    14    21    19    1
    15    19    13    1
    16    19    22    1
    17    13    11   ar
    18     8     6   ar
    19     8     9   ar
    20     6     7    1
    21    11     9   ar
    22    11    12    1
    23     9    10    1
