@<TRIPOS>MOLECULE
(<i>E</i>)-3-[(4-Diethylamino-2-hydroxybenzylidene)amino]benzonitrile
 41 42 0 0 0
SMALL
GASTEIGER

@<TRIPOS>ATOM
      1 C           6.5015    9.2147    4.6738 C.ar    1  LIG1        0.0015
      2 H           5.7314    9.6677    4.9337 H       1  LIG1        0.0673
      3 O           6.5952    8.2408    6.8116 O.3     1  LIG1       -0.5061
      4 N           8.4993    6.5321    7.3146 N.2     1  LIG1       -0.2548
      5 C           8.3387    7.7205    5.2432 C.ar    1  LIG1        0.0346
      6 C           6.9933    9.3741    3.3654 C.ar    1  LIG1        0.0332
      7 C           8.9998    5.6562    9.4929 C.ar    1  LIG1       -0.0189
      8 H           8.5396    6.3734    9.8650 H       1  LIG1        0.0652
      9 N           6.3048   10.1025    2.4317 N.pl3   1  LIG1       -0.3303
     10 C           7.1464    8.3960    5.5762 C.ar    1  LIG1        0.1272
     11 C           8.9814    6.8225    6.1491 C.2     1  LIG1        0.0389
     12 H           9.7827    6.4281    5.8901 H       1  LIG1        0.0837
     13 C           8.8470    7.9448    3.9531 C.ar    1  LIG1       -0.0479
     14 H           9.6495    7.5397    3.7152 H       1  LIG1        0.0626
     15 C           9.1203    5.5487    8.1123 C.ar    1  LIG1        0.0651
     16 C           6.8015   10.2939    1.0783 C.3     1  LIG1        0.0093
     17 H           7.7701   10.3469    1.1023 H       1  LIG1        0.0461
     18 H           6.4668   11.1366    0.7349 H       1  LIG1        0.0461
     19 C           9.7808    4.4343    7.5868 C.ar    1  LIG1       -0.0362
     20 H           9.8414    4.3309    6.6645 H       1  LIG1        0.0639
     21 C           8.2142    8.7292    3.0348 C.ar    1  LIG1       -0.0398
     22 H           8.5838    8.8420    2.1885 H       1  LIG1        0.0636
     23 C           9.4530    4.8194   11.7545 C.1     1  LIG1        0.0992
     24 C           9.5662    4.6917   10.3174 C.ar    1  LIG1        0.0538
     25 C          10.2571    3.6024    9.7834 C.ar    1  LIG1       -0.0442
     26 H          10.6510    2.9699   10.3401 H       1  LIG1        0.0630
     27 C           4.9718   10.6482    2.7157 C.3     1  LIG1        0.0093
     28 H           4.5027   10.0447    3.3131 H       1  LIG1        0.0461
     29 H           4.4673   10.6999    1.8891 H       1  LIG1        0.0461
     30 C          10.3430    3.4869    8.4153 C.ar    1  LIG1       -0.0585
     31 H          10.7861    2.7583    8.0439 H       1  LIG1        0.0619
     32 N           9.3776    4.9045   12.8874 N.1     1  LIG1       -0.1909
     33 C           6.3928    9.1790    0.1355 C.3     1  LIG1       -0.0494
     34 H           6.7452    9.3555   -0.7398 H       1  LIG1        0.0245
     35 H           5.4349    9.1331    0.0915 H       1  LIG1        0.0245
     36 H           6.7392    8.3440    0.4577 H       1  LIG1        0.0245
     37 C           5.0310   12.0118    3.3412 C.3     1  LIG1       -0.0494
     38 H           4.1393   12.3229    3.5160 H       1  LIG1        0.0245
     39 H           5.4710   12.6196    2.7428 H       1  LIG1        0.0245
     40 H           5.5207   11.9649    4.1655 H       1  LIG1        0.0245
     41 H           7.1356    7.5465    7.2324 H       1  LIG1        0.2922
@<TRIPOS>BOND
     1    34    33    1
     2    35    33    1
     3    33    36    1
     4    33    16    1
     5    18    16    1
     6    16    17    1
     7    16     9    1
     8    29    27    1
     9    22    21    1
    10     9    27    1
    11     9     6    1
    12    27    28    1
    13    27    37    1
    14    39    37    1
    15    21     6   ar
    16    21    13   ar
    17    37    38    1
    18    37    40    1
    19     6     1   ar
    20    14    13    1
    21    13     5   ar
    22     1     2    1
    23     1    10   ar
    24     5    10   ar
    25     5    11    1
    26    10     3    1
    27    12    11    1
    28    11     4    2
    29    20    19    1
    30     3    41    1
    31     4    15    1
    32    19    15   ar
    33    19    30   ar
    34    31    30    1
    35    15     7   ar
    36    30    25   ar
    37     7     8    1
    38     7    24   ar
    39    25    24   ar
    40    25    26    1
    41    24    23    1
    42    23    32    3
