@<TRIPOS>MOLECULE
(<i>E</i>)-<i>N</i>'-[(2-Hydroxy-1-naphthyl)methylene]benzohydrazide monohydrate
 39 40 0 0 0
SMALL
GASTEIGER

@<TRIPOS>ATOM
      1 N          -2.0286    1.6592    6.4811 N.am    1  LIG1       -0.2030
      2 H          -2.3817    1.6995    7.2648 H       1  LIG1        0.1776
      3 N          -0.7100    1.2816    6.3215 N.2     1  LIG1       -0.1873
      4 O          -2.2676    1.8915    4.2624 O.2     1  LIG1       -0.2685
      5 O           1.4601    0.8105    4.9608 O.3     1  LIG1       -0.5061
      6 H           0.6933    1.0759    5.0736 H       1  LIG1        0.2922
      7 O          -2.7141    0.9220    9.1995 O.3     2  HOH2       -0.4105
      8 H          -2.7829    0.0921    9.0311 H       0  HOH0        0.2052
      9 H          -3.3847    1.1579    9.6645 H       0  HOH0        0.2052
     10 C          -2.7489    1.9605    5.3913 C.2     1  LIG1        0.2633
     11 C          -4.1621    2.3791    5.5948 C.ar    1  LIG1        0.0384
     12 C          -4.8024    2.4151    6.8206 C.ar    1  LIG1       -0.0496
     13 H          -4.3409    2.1756    7.5918 H       1  LIG1        0.0625
     14 C          -6.1223    2.8063    6.9017 C.ar    1  LIG1       -0.0610
     15 H          -6.5471    2.8286    7.7282 H       1  LIG1        0.0618
     16 C          -6.8080    3.1594    5.7752 C.ar    1  LIG1       -0.0617
     17 H          -7.6991    3.4198    5.8370 H       1  LIG1        0.0618
     18 C          -6.1915    3.1328    4.5638 C.ar    1  LIG1       -0.0610
     19 H          -6.6636    3.3738    3.7991 H       1  LIG1        0.0618
     20 C          -4.8690    2.7509    4.4627 C.ar    1  LIG1       -0.0496
     21 H          -4.4500    2.7430    3.6317 H       1  LIG1        0.0625
     22 C          -0.0638    1.0126    7.3961 C.2     1  LIG1        0.0569
     23 H          -0.4891    1.0997    8.2187 H       1  LIG1        0.0853
     24 C           1.3167    0.5768    7.3497 C.ar    1  LIG1        0.0436
     25 C           1.9974    0.4704    6.1485 C.ar    1  LIG1        0.1261
     26 C           3.3124   -0.0374    6.0919 C.ar    1  LIG1       -0.0189
     27 H           3.7591   -0.0841    5.2783 H       1  LIG1        0.0654
     28 C           3.9203   -0.4553    7.2223 C.ar    1  LIG1       -0.0505
     29 H           4.7776   -0.8134    7.1682 H       1  LIG1        0.0625
     30 C           3.2945   -0.3646    8.4811 C.ar    1  LIG1       -0.0170
     31 C           1.9875    0.1884    8.5601 C.ar    1  LIG1       -0.0057
     32 C           1.4121    0.3013    9.8408 C.ar    1  LIG1       -0.0533
     33 H           0.5694    0.6854    9.9322 H       1  LIG1        0.0624
     34 C           2.0710   -0.1446   10.9519 C.ar    1  LIG1       -0.0611
     35 H           1.6694   -0.0554   11.7861 H       1  LIG1        0.0618
     36 C           3.3333   -0.7314   10.8592 C.ar    1  LIG1       -0.0612
     37 H           3.7583   -1.0558   11.6200 H       1  LIG1        0.0618
     38 C           3.9327   -0.8235    9.6516 C.ar    1  LIG1       -0.0540
     39 H           4.7819   -1.1975    9.5911 H       1  LIG1        0.0624
@<TRIPOS>BOND
     1    21    20    1
     2    19    18    1
     3     4    10    2
     4    20    18   ar
     5    20    11   ar
     6    18    16   ar
     7     5     6    1
     8     5    25    1
     9    27    26    1
    10    10    11    1
    11    10     1   am
    12    11    12   ar
    13    16    17    1
    14    16    14   ar
    15    26    25   ar
    16    26    28   ar
    17    25    24   ar
    18     3     1    1
    19     3    22    2
    20     1     2    1
    21    12    14   ar
    22    12    13    1
    23    14    15    1
    24    29    28    1
    25    28    30   ar
    26    24    22    1
    27    24    31   ar
    28    22    23    1
    29    30    31   ar
    30    30    38   ar
    31    31    32   ar
    32     8     7    1
    33     7     9    1
    34    39    38    1
    35    38    36   ar
    36    32    33    1
    37    32    34   ar
    38    36    34   ar
    39    36    37    1
    40    34    35    1
