@<TRIPOS>MOLECULE
<i>N</i>-(Phenylsulfonyl)-L-asparagine
 30 30 0 0 0
SMALL
GASTEIGER

@<TRIPOS>ATOM
      1 C           9.5164    4.5066    3.1871 C.ar    1  LIG1        0.1053
      2 C           9.7733    3.7189    2.0817 C.ar    1  LIG1       -0.0354
      3 H           9.2116    3.0116    1.8583 H       1  LIG1        0.0637
      4 C          10.8935    4.0114    1.3123 C.ar    1  LIG1       -0.0599
      5 H          11.0912    3.4904    0.5681 H       1  LIG1        0.0618
      6 C          11.7069    5.0622    1.6436 C.ar    1  LIG1       -0.0616
      7 H          12.4464    5.2552    1.1141 H       1  LIG1        0.0618
      8 C          11.4441    5.8366    2.7533 C.ar    1  LIG1       -0.0599
      9 H          12.0078    6.5428    2.9724 H       1  LIG1        0.0618
     10 C          10.3447    5.5626    3.5349 C.ar    1  LIG1       -0.0354
     11 H          10.1601    6.0785    4.2858 H       1  LIG1        0.0637
     12 C           6.2425    4.6728    2.1518 C.3     1  LIG1        0.1335
     13 H           6.3734    3.7055    2.0620 H       1  LIG1        0.0597
     14 C           6.8181    5.3712    0.9264 C.2     1  LIG1        0.3240
     15 C           4.7316    4.9776    2.2059 C.3     1  LIG1        0.0510
     16 H           4.5972    5.8654    2.5717 H       1  LIG1        0.0380
     17 H           4.3706    4.9678    1.3057 H       1  LIG1        0.0380
     18 C           3.9920    3.9799    3.0453 C.2     1  LIG1        0.2126
     19 H           3.8407    5.1587    4.4696 H       1  LIG1        0.1449
     20 H           3.1236    3.7246    4.7669 H       1  LIG1        0.1449
     21 N           6.8575    5.1272    3.3958 N.3     1  LIG1       -0.1757
     22 H           7.0062    5.8861    3.4458 H       1  LIG1        0.1489
     23 N           3.6639    4.3209    4.2778 N.am    1  LIG1       -0.3293
     24 O           7.6430    2.8816    3.9976 O.2     1  LIG1       -0.1530
     25 O           8.2140    4.8342    5.3997 O.2     1  LIG1       -0.1530
     26 O           7.3897    6.4205    0.9527 O.2     1  LIG1       -0.2492
     27 O           6.5450    4.6764   -0.1551 O.3     1  LIG1       -0.4795
     28 H           6.7825    5.0968   -0.8180 H       1  LIG1        0.2951
     29 O           3.6957    2.8780    2.5951 O.2     1  LIG1       -0.2760
     30 S           8.0361    4.2543    4.1041 S.O2    1  LIG1        0.0591
@<TRIPOS>BOND
     1    28    27    1
     2    27    14    1
     3     5     4    1
     4    14    26    2
     5    14    12    1
     6     7     6    1
     7    17    15    1
     8     4     6   ar
     9     4     2   ar
    10     6     8   ar
    11     3     2    1
    12    13    12    1
    13     2     1   ar
    14    12    15    1
    15    12    21    1
    16    15    16    1
    17    15    18    1
    18    29    18    2
    19     8     9    1
    20     8    10   ar
    21    18    23   am
    22     1    10   ar
    23     1    30    1
    24    21    22    1
    25    21    30    1
    26    10    11    1
    27    24    30    2
    28    30    25    2
    29    23    19    1
    30    23    20    1
