@<TRIPOS>MOLECULE
2-Azido-2-deoxy-3,4-<i>O</i>-isopropylidene-2-<i>C</i>-methyl-D-talono-1,5-\ lactone
 33 34 0 0 0
SMALL
GASTEIGER

@<TRIPOS>ATOM
      1 O           2.9604   11.6667   12.3830 O.3     1  LIG1       -0.3401
      2 C           3.4118   11.3847   13.7228 C.3     1  LIG1        0.1657
      3 O           4.3576   10.3315   13.5323 O.3     1  LIG1       -0.3395
      4 C           4.9411   10.4429   12.2282 C.3     1  LIG1        0.1300
      5 C           4.1048   11.5393   11.5335 C.3     1  LIG1        0.1336
      6 C           3.6343   11.1441   10.1517 C.3     1  LIG1        0.2644
      7 N           2.6386   12.1785    9.7680 N.2     1  LIG1        0.1414
      8 N           2.2258   12.0859    8.6042 N.2     1  LIG1        0.2555
      9 N           1.7702   12.1269    7.5647 N.2     1  LIG1        0.3543
     10 C           2.9229    9.7846   10.2571 C.2     1  LIG1        0.3451
     11 O           1.8576    9.5542    9.7482 O.2     1  LIG1       -0.2477
     12 O           3.5171    8.8547   11.0148 O.3     1  LIG1       -0.4544
     13 C           4.8590    9.0979   11.5293 C.3     1  LIG1        0.1546
     14 C           5.1844    7.9260   12.4163 C.3     1  LIG1        0.0838
     15 O           5.2736    6.7291   11.6636 O.3     1  LIG1       -0.3913
     16 C           4.7918   11.1545    9.1468 C.3     1  LIG1       -0.0197
     17 C           4.0786   12.5915   14.3319 C.3     1  LIG1       -0.0108
     18 C           2.2377   10.8636   14.4906 C.3     1  LIG1       -0.0108
     19 H           5.8916   10.7169   12.3080 H       1  LIG1        0.0662
     20 H           4.6038   12.3874   11.4918 H       1  LIG1        0.0657
     21 H           5.4931    9.0904   10.7695 H       1  LIG1        0.0784
     22 H           6.0552    8.1057   12.8349 H       1  LIG1        0.0595
     23 H           4.4920    7.8362   13.1147 H       1  LIG1        0.0595
     24 H           4.4379   10.8970    8.2741 H       1  LIG1        0.0261
     25 H           5.1790   12.0445    9.0965 H       1  LIG1        0.0261
     26 H           5.4836   10.5314    9.4186 H       1  LIG1        0.0261
     27 H           4.3962   12.3527   15.2130 H       1  LIG1        0.0281
     28 H           3.4160   13.3053   14.3937 H       1  LIG1        0.0281
     29 H           4.8257   12.8557   13.7542 H       1  LIG1        0.0281
     30 H           2.5339   10.6168   15.3928 H       1  LIG1        0.0281
     31 H           1.5489   11.5481   14.5360 H       1  LIG1        0.0281
     32 H           1.8879   10.0857   14.0325 H       1  LIG1        0.0281
     33 H           4.5152    6.3751   11.6528 H       1  LIG1        0.2096
@<TRIPOS>BOND
     1     9     8    2
     2    24    16    1
     3     8     7    2
     4    25    16    1
     5    16    26    1
     6    16     6    1
     7    11    10    2
     8     7     6    1
     9     6    10    1
    10     6     5    1
    11    10    12    1
    12    21    13    1
    13    12    13    1
    14    20     5    1
    15    13     4    1
    16    13    14    1
    17     5     4    1
    18     5     1    1
    19    33    15    1
    20    15    14    1
    21     4    19    1
    22     4     3    1
    23     1     2    1
    24    14    22    1
    25    14    23    1
    26     3     2    1
    27     2    17    1
    28     2    18    1
    29    29    17    1
    30    32    18    1
    31    17    28    1
    32    17    27    1
    33    18    31    1
    34    18    30    1
