@<TRIPOS>MOLECULE
2-Amino-5-bromopyridinium 3-aminobenzoate
 30 30 0 0 0
SMALL
GASTEIGER

@<TRIPOS>ATOM
      1 BR          8.2159    5.8447    0.4672 Br      1  LIG1       -0.0508
      2 N           4.9553    3.3846    0.7478 N.pl3   1  LIG1       -0.2114
      3 N           3.2766    3.0435    2.2789 N.pl3   1  LIG1       -0.2515
      4 H           2.9889    2.3941    1.7929 H       1  LIG1        0.2881
      5 H           2.8716    3.2467    3.0090 H       1  LIG1        0.2881
      6 C           4.3350    3.7248    1.9035 C.2     1  LIG1        0.2543
      7 C           4.8897    4.7795    2.6588 C.2     1  LIG1        0.0095
      8 H           4.4796    5.0456    3.4491 H       1  LIG1        0.0656
      9 C           6.0236    5.4100    2.2362 C.3     1  LIG1        0.0305
     10 H           6.3895    6.1013    2.7387 H       1  LIG1        0.0409
     11 C           6.6274    5.0103    1.0442 C.2     1  LIG1        0.0403
     12 C           6.0847    3.9965    0.3218 C.2     1  LIG1        0.0921
     13 H           6.4908    3.7215   -0.4685 H       1  LIG1        0.1067
     14 O          -0.6173   12.5318   10.0457 O.co2   2  LIG2       -0.2406
     15 O          -2.4717   12.3132   11.2361 O.co2   2  LIG2       -0.2406
     16 N          -4.8273    8.2636    9.4200 N.pl3   2  LIG2       -0.3579
     17 H          -5.0697    7.5811    8.9559 H       2  LIG2        0.1423
     18 H          -5.3313    8.5540   10.0538 H       2  LIG2        0.1423
     19 C          -1.2579   10.2524    8.5093 C.ar    2  LIG2       -0.0475
     20 H          -0.4755   10.7041    8.2926 H       2  LIG2        0.0626
     21 C          -1.6252    9.1106    7.8088 C.ar    2  LIG2       -0.0592
     22 H          -1.0833    8.7936    7.1236 H       2  LIG2        0.0618
     23 C          -2.8024    8.4413    8.1284 C.ar    2  LIG2       -0.0410
     24 H          -3.0410    7.6794    7.6534 H       2  LIG2        0.0636
     25 C          -3.6220    8.8985    9.1453 C.ar    2  LIG2        0.0253
     26 C          -3.2529   10.0426    9.8557 C.ar    2  LIG2       -0.0269
     27 H          -3.7958   10.3584   10.5409 H       2  LIG2        0.0644
     28 C          -2.0686   10.7129    9.5361 C.ar    2  LIG2        0.0649
     29 C          -1.6852   11.9431   10.3340 C.2     2  LIG2        0.3866
     30 H           4.6312    2.6934    0.1412 H       1  LIG1        0.2976
@<TRIPOS>BOND
     1    13    12    1
     2    30     2    1
     3    12     2    1
     4    12    11    2
     5     1    11    1
     6     2     6    1
     7    11     9    1
     8     4     3    1
     9     6     3    1
    10     6     7    2
    11     9     7    1
    12     9    10    1
    13     3     5    1
    14     7     8    1
    15    22    21    1
    16    24    23    1
    17    21    23   ar
    18    21    19   ar
    19    23    25   ar
    20    20    19    1
    21    19    28   ar
    22    17    16    1
    23    25    16    1
    24    25    26   ar
    25    16    18    1
    26    28    26   ar
    27    28    29    1
    28    26    27    1
    29    14    29   ar
    30    29    15   ar
