@<TRIPOS>MOLECULE
<i>N</i>-(3,5-Dichlorophenyl)-2,4-dimethylbenzenesulfonamide
 33 34 0 0 0
SMALL
GASTEIGER

@<TRIPOS>ATOM
      1 C           9.3931    1.1350    2.5173 C.ar    1  LIG1        0.1114
      2 C           9.7723    2.4144    2.1212 C.ar    1  LIG1       -0.0236
      3 C           9.3583    3.4626    2.8940 C.ar    1  LIG1       -0.0541
      4 H           9.5895    4.3242    2.6325 H       1  LIG1        0.0623
      5 C           8.6092    3.3012    4.0529 C.ar    1  LIG1       -0.0501
      6 C           8.2335    2.0274    4.4091 C.ar    1  LIG1       -0.0570
      7 H           7.7207    1.8968    5.1731 H       1  LIG1        0.0621
      8 C           8.6082    0.9484    3.6507 C.ar    1  LIG1       -0.0346
      9 H           8.3374    0.0925    3.8931 H       1  LIG1        0.0637
     10 C           8.2051    0.0795   -0.3922 C.ar    1  LIG1        0.0508
     11 C           8.1367    0.5874   -1.6754 C.ar    1  LIG1       -0.0209
     12 H           8.9142    0.7691   -2.1499 H       1  LIG1        0.0651
     13 C           6.9075    0.8202   -2.2435 C.ar    1  LIG1        0.0441
     14 C           5.7349    0.5841   -1.5560 C.ar    1  LIG1       -0.0249
     15 H           4.9068    0.7513   -1.9449 H       1  LIG1        0.0647
     16 C           5.8318    0.0982   -0.2873 C.ar    1  LIG1        0.0441
     17 C           7.0429   -0.1769    0.3341 C.ar    1  LIG1       -0.0209
     18 H           7.0766   -0.5184    1.1976 H       1  LIG1        0.0651
     19 C          10.5879    2.6984    0.8958 C.3     1  LIG1       -0.0378
     20 H          10.0664    2.5053    0.1130 H       1  LIG1        0.0278
     21 H          11.3740    2.1483    0.8990 H       1  LIG1        0.0278
     22 H          10.8451    3.6233    0.8893 H       1  LIG1        0.0278
     23 C           8.2125    4.4962    4.8583 C.3     1  LIG1       -0.0397
     24 H           7.4659    4.9311    4.4403 H       1  LIG1        0.0278
     25 H           8.9525    5.1079    4.9067 H       1  LIG1        0.0278
     26 H           7.9686    4.2188    5.7428 H       1  LIG1        0.0278
     27 CL          6.8439    1.3987   -3.8666 Cl      1  LIG1       -0.0834
     28 CL          4.3793   -0.2182    0.6064 Cl      1  LIG1       -0.0834
     29 N           9.4962   -0.1809    0.1185 N.pl3   1  LIG1       -0.2162
     30 H          10.0956    0.0892   -0.4358 H       1  LIG1        0.1737
     31 O          11.3506   -0.3708    1.6415 O.2     1  LIG1       -0.1500
     32 O           9.2132   -1.4109    2.2447 O.2     1  LIG1       -0.1500
     33 S           9.9133   -0.3198    1.6806 S.O2    1  LIG1        0.0726
@<TRIPOS>BOND
     1    27    13    1
     2    13    11   ar
     3    13    14   ar
     4    12    11    1
     5    15    14    1
     6    11    10   ar
     7    14    16   ar
     8    30    29    1
     9    10    29    1
    10    10    17   ar
    11    16    17   ar
    12    16    28    1
    13    20    19    1
    14    29    33    1
    15    17    18    1
    16    22    19    1
    17    19    21    1
    18    19     2    1
    19    31    33    2
    20    33    32    2
    21    33     1    1
    22     2     1   ar
    23     2     3   ar
    24     1     8   ar
    25     4     3    1
    26     3     5   ar
    27     8     9    1
    28     8     6   ar
    29     5     6   ar
    30     5    23    1
    31     6     7    1
    32    24    23    1
    33    23    25    1
    34    23    26    1
