@<TRIPOS>MOLECULE
2-Methoxy-9-phenoxyacridine
 38 41 0 0 0
SMALL
GASTEIGER

@<TRIPOS>ATOM
      1 C           1.5150    0.1179    8.2732 C.ar    1  LIG1       -0.0072
      2 H           1.1310    0.5646    7.5540 H       1  LIG1        0.0662
      3 C           2.2156   -1.0362    8.0709 C.ar    1  LIG1        0.1209
      4 C           2.8048   -1.7311    9.1650 C.ar    1  LIG1       -0.0179
      5 H           3.2702   -2.5219    9.0096 H       1  LIG1        0.0655
      6 C           2.6975   -1.2591   10.4210 C.ar    1  LIG1       -0.0321
      7 H           3.0983   -1.7247   11.1185 H       1  LIG1        0.0640
      8 C           1.1323    1.9433   13.5795 C.ar    1  LIG1       -0.0356
      9 H           1.5637    1.4673   14.2530 H       1  LIG1        0.0639
     10 C           0.4341    3.0618   13.8934 C.ar    1  LIG1       -0.0597
     11 H           0.3911    3.3424   14.7790 H       1  LIG1        0.0618
     12 C          -0.2291    3.8062   12.8901 C.ar    1  LIG1       -0.0610
     13 H          -0.7092    4.5677   13.1241 H       1  LIG1        0.0618
     14 C          -0.1736    3.4226   11.5907 C.ar    1  LIG1       -0.0490
     15 H          -0.6120    3.9241   10.9407 H       1  LIG1        0.0625
     16 C           0.6761    1.8021    9.9031 C.ar    1  LIG1        0.1468
     17 N           1.9100    0.3634   11.9753 N.ar    1  LIG1       -0.2465
     18 C           1.3756    0.6333    9.5949 C.ar    1  LIG1        0.0467
     19 C           1.9796   -0.0572   10.7037 C.ar    1  LIG1        0.0754
     20 C           0.5532    2.2559   11.2148 C.ar    1  LIG1        0.0433
     21 C           1.2138    1.4876   12.2349 C.ar    1  LIG1        0.0752
     22 O           2.4433   -1.6290    6.8592 O.3     1  LIG1       -0.4951
     23 C           1.9631   -0.9585    5.6940 C.3     1  LIG1        0.0788
     24 H           2.2380   -1.4409    4.9119 H       1  LIG1        0.0660
     25 H           2.3243   -0.0698    5.6637 H       1  LIG1        0.0660
     26 H           1.0048   -0.9135    5.7214 H       1  LIG1        0.0660
     27 O           0.1704    2.5770    8.8633 O.3     1  LIG1       -0.4547
     28 C          -1.1549    2.3946    8.4781 C.ar    1  LIG1        0.1285
     29 C          -2.0322    1.5552    9.1343 C.ar    1  LIG1       -0.0193
     30 H          -1.7630    1.0811    9.8887 H       1  LIG1        0.0654
     31 C          -3.3235    1.4333    8.6460 C.ar    1  LIG1       -0.0583
     32 H          -3.9254    0.8701    9.0769 H       1  LIG1        0.0619
     33 C          -3.7272    2.1361    7.5293 C.ar    1  LIG1       -0.0615
     34 H          -4.5922    2.0380    7.2010 H       1  LIG1        0.0618
     35 C          -2.8395    2.9865    6.9014 C.ar    1  LIG1       -0.0583
     36 H          -3.1099    3.4665    6.1513 H       1  LIG1        0.0619
     37 C          -1.5537    3.1293    7.3787 C.ar    1  LIG1       -0.0193
     38 H          -0.9616    3.7147    6.9656 H       1  LIG1        0.0654
@<TRIPOS>BOND
     1    24    23    1
     2    25    23    1
     3    23    26    1
     4    23    22    1
     5    36    35    1
     6    22     3    1
     7    35    37   ar
     8    35    33   ar
     9    38    37    1
    10    34    33    1
    11    37    28   ar
    12    33    31   ar
    13     2     1    1
    14     3     1   ar
    15     3     4   ar
    16     1    18   ar
    17    28    27    1
    18    28    29   ar
    19    31    32    1
    20    31    29   ar
    21    27    16    1
    22     5     4    1
    23    29    30    1
    24     4     6   ar
    25    18    16   ar
    26    18    19   ar
    27    16    20   ar
    28     6    19   ar
    29     6     7    1
    30    19    17   ar
    31    15    14    1
    32    20    14   ar
    33    20    21   ar
    34    14    12   ar
    35    17    21   ar
    36    21     8   ar
    37    12    13    1
    38    12    10   ar
    39     8    10   ar
    40     8     9    1
    41    10    11    1
