@<TRIPOS>MOLECULE
(<i>E</i>)-1-[(2-Chloro-5-methylpyridin-3-yl)methylene]thiosemicarbazide
 23 23 0 0 0
SMALL
GASTEIGER

@<TRIPOS>ATOM
      1 CL          4.2924    4.9444    1.2390 Cl      1  LIG1       -0.0617
      2 S          10.7875    7.4562   -0.9041 S.2     1  LIG1       -0.0178
      3 N           4.3353    2.3634    1.4242 N.ar    1  LIG1       -0.2430
      4 N           8.3564    4.4992   -0.0959 N.3     1  LIG1       -0.1335
      5 N           8.9234    5.7308   -0.2346 N.am    1  LIG1       -0.2445
      6 H           8.4934    6.4343    0.0727 H       1  LIG1        0.1696
      7 N          10.7347    4.8418   -1.3170 N.am    1  LIG1       -0.3396
      8 H          10.3554    4.0500   -1.2511 H       1  LIG1        0.1440
      9 H          11.5189    4.9223   -1.7098 H       1  LIG1        0.1440
     10 C           5.0897    3.3939    1.0952 C.ar    1  LIG1        0.1340
     11 C           6.4132    3.3218    0.6739 C.ar    1  LIG1        0.0118
     12 C           6.9536    2.0414    0.5869 C.ar    1  LIG1       -0.0497
     13 H           7.8487    1.9342    0.2886 H       1  LIG1        0.0625
     14 C           6.2111    0.9193    0.9273 C.ar    1  LIG1       -0.0319
     15 C           4.9026    1.1400    1.3478 C.ar    1  LIG1        0.0322
     16 H           4.3781    0.3865    1.5959 H       1  LIG1        0.0833
     17 C           6.7812   -0.4711    0.8815 C.3     1  LIG1       -0.0383
     18 H           7.6795   -0.4688    1.2736 H       1  LIG1        0.0278
     19 H           6.8323   -0.7730   -0.0502 H       1  LIG1        0.0278
     20 H           6.2039   -1.0773    1.3898 H       1  LIG1        0.0278
     21 C           7.1779    4.5206    0.3965 C.3     1  LIG1        0.0959
     22 H           6.7848    5.3632    0.5899 H       1  LIG1        0.0565
     23 C          10.1279    5.9091   -0.8283 C.2     1  LIG1        0.1428
@<TRIPOS>BOND
     1     9     7    1
     2     7     8    1
     3     7    23    1
     4     2    23    2
     5    23     5    1
     6     5     4    1
     7     5     6    1
     8     4    21    1
     9    19    17    1
    10    13    12    1
    11    21    22    1
    12    21    11    1
    13    12    11   ar
    14    12    14   ar
    15    11    10   ar
    16    17    14    1
    17    17    18    1
    18    17    20    1
    19    14    15   ar
    20    10     1    1
    21    10     3   ar
    22    15     3   ar
    23    15    16    1
