@<TRIPOS>MOLECULE
1-(2,3,4-Trihydroxybenzylidene)-4-ethylthiosemicarbazide
 30 30 0 0 0
SMALL
GASTEIGER

@<TRIPOS>ATOM
      1 S           3.7387    8.7374    6.2021 S.2     1  LIG1       -0.0172
      2 O           3.7487    4.1260    0.3605 O.3     1  LIG1       -0.5028
      3 O           4.6841    3.8621   -2.1764 O.3     1  LIG1       -0.5009
      4 O           6.3827    5.7328   -3.2486 O.3     1  LIG1       -0.5032
      5 N           4.8428    7.2472    2.7454 N.2     1  LIG1       -0.1884
      6 N           4.1978    7.4159    3.9564 N.am    1  LIG1       -0.2184
      7 N           5.7545    9.0086    4.4513 N.am    1  LIG1       -0.3256
      8 C           4.8903    6.2084    0.6145 C.ar    1  LIG1        0.0399
      9 C           4.5594    5.0965   -0.1685 C.ar    1  LIG1        0.1708
     10 C           5.0549    4.9692   -1.4656 C.ar    1  LIG1        0.2012
     11 C           5.9053    5.9443   -1.9779 C.ar    1  LIG1        0.1620
     12 C           6.2420    7.0562   -1.2108 C.ar    1  LIG1       -0.0157
     13 H           6.8223    7.7207   -1.5623 H       1  LIG1        0.0655
     14 C           5.7277    7.1873    0.0643 C.ar    1  LIG1       -0.0459
     15 H           5.9463    7.9555    0.5783 H       1  LIG1        0.0626
     16 C           4.3404    6.3682    1.9590 C.2     1  LIG1        0.0564
     17 H           3.6162    5.8247    2.2478 H       1  LIG1        0.0852
     18 C           4.6321    8.3910    4.7869 C.2     1  LIG1        0.1499
     19 C           6.3255   10.1698    5.1360 C.3     1  LIG1        0.0079
     20 H           7.3113   10.0805    5.1696 H       1  LIG1        0.0459
     21 H           5.9892   10.2009    6.0664 H       1  LIG1        0.0459
     22 C           5.9626   11.4534    4.4270 C.3     1  LIG1       -0.0496
     23 H           6.3360   12.2143    4.9183 H       1  LIG1        0.0245
     24 H           4.9868   11.5393    4.3853 H       1  LIG1        0.0245
     25 H           6.3284   11.4395    3.5179 H       1  LIG1        0.0245
     26 H           3.6254    3.5353   -0.2050 H       1  LIG1        0.2923
     27 H           4.9696    3.9227   -2.9617 H       1  LIG1        0.2924
     28 H           6.4781    6.4865   -3.6062 H       1  LIG1        0.2923
     29 H           3.4484    7.0222    4.1350 H       1  LIG1        0.1762
     30 H           6.1078    8.7686    3.7124 H       1  LIG1        0.1477
@<TRIPOS>BOND
     1    28     4    1
     2     4    11    1
     3    27     3    1
     4     3    10    1
     5    11    10   ar
     6    11    12   ar
     7    13    12    1
     8    10     9   ar
     9    12    14   ar
    10    26     2    1
    11     9     2    1
    12     9     8   ar
    13    14    15    1
    14    14     8   ar
    15     8    16    1
    16    16    17    1
    17    16     5    2
    18     5     6    1
    19    25    22    1
    20    30     7    1
    21     6    29    1
    22     6    18    1
    23    24    22    1
    24    22    23    1
    25    22    19    1
    26     7    18    1
    27     7    19    1
    28    18     1    2
    29    19    20    1
    30    19    21    1
