@<TRIPOS>MOLECULE
(2<i>E</i>)-3-(4-Bromophenyl)-1-(2-methyl-4-phenyl-3-quinolyl)prop-2-en-1-one
 46 49 0 0 0
SMALL
GASTEIGER

@<TRIPOS>ATOM
      1 BR         -0.8065    1.9091    7.5570 Br      1  LIG1       -0.0503
      2 O           5.6036    6.1706    2.3253 O.2     1  LIG1       -0.2872
      3 N           2.2495    8.7745    0.7652 N.ar    1  LIG1       -0.2511
      4 C           2.6927    9.9802    1.2304 C.ar    1  LIG1        0.0719
      5 C           2.0889   11.1479    0.7165 C.ar    1  LIG1       -0.0357
      6 H           1.4312   11.0811    0.0617 H       1  LIG1        0.0639
      7 C           2.4672   12.3709    1.1769 C.ar    1  LIG1       -0.0597
      8 H           2.0630   13.1342    0.8343 H       1  LIG1        0.0618
      9 C           3.4537   12.4954    2.1569 C.ar    1  LIG1       -0.0611
     10 H           3.6951   13.3393    2.4643 H       1  LIG1        0.0618
     11 C           4.0644   11.3899    2.6646 C.ar    1  LIG1       -0.0520
     12 H           4.7250   11.4842    3.3124 H       1  LIG1        0.0624
     13 C           3.7030   10.0986    2.2144 C.ar    1  LIG1        0.0088
     14 C           4.2777    8.8955    2.7227 C.ar    1  LIG1        0.0038
     15 C           3.8015    7.6921    2.2434 C.ar    1  LIG1        0.0509
     16 C           2.7763    7.6744    1.2550 C.ar    1  LIG1        0.0503
     17 C           5.3424    8.9467    3.7599 C.ar    1  LIG1       -0.0165
     18 C           6.5968    9.4721    3.4665 C.ar    1  LIG1       -0.0540
     19 H           6.7727    9.8074    2.6169 H       1  LIG1        0.0624
     20 C           7.5820    9.4960    4.4346 C.ar    1  LIG1       -0.0612
     21 H           8.4187    9.8465    4.2300 H       1  LIG1        0.0618
     22 C           7.3417    9.0112    5.6912 C.ar    1  LIG1       -0.0617
     23 H           8.0112    9.0284    6.3365 H       1  LIG1        0.0618
     24 C           6.1015    8.4970    5.9896 C.ar    1  LIG1       -0.0612
     25 H           5.9331    8.1626    6.8407 H       1  LIG1        0.0618
     26 C           5.1103    8.4740    5.0376 C.ar    1  LIG1       -0.0540
     27 H           4.2720    8.1350    5.2570 H       1  LIG1        0.0624
     28 C           4.4643    6.4042    2.6774 C.2     1  LIG1        0.1884
     29 C           3.7441    5.4457    3.5167 C.2     1  LIG1       -0.0137
     30 H           4.1557    4.6301    3.6871 H       1  LIG1        0.0656
     31 C           2.5575    5.6520    4.0488 C.2     1  LIG1       -0.0510
     32 H           2.1566    6.4699    3.8599 H       1  LIG1        0.0625
     33 C           1.7959    4.7339    4.9066 C.ar    1  LIG1       -0.0249
     34 C           0.5185    5.0894    5.2989 C.ar    1  LIG1       -0.0535
     35 H           0.1697    5.9071    5.0241 H       1  LIG1        0.0624
     36 C          -0.2497    4.2638    6.0866 C.ar    1  LIG1       -0.0472
     37 H          -1.1080    4.5176    6.3380 H       1  LIG1        0.0629
     38 C           0.2649    3.0605    6.4962 C.ar    1  LIG1        0.0179
     39 C           1.5284    2.6769    6.1337 C.ar    1  LIG1       -0.0472
     40 H           1.8695    1.8596    6.4166 H       1  LIG1        0.0629
     41 C           2.2877    3.5121    5.3474 C.ar    1  LIG1       -0.0535
     42 H           3.1482    3.2538    5.1059 H       1  LIG1        0.0624
     43 C           2.2371    6.3837    0.6932 C.3     1  LIG1       -0.0216
     44 H           1.5266    6.0628    1.2537 H       1  LIG1        0.0293
     45 H           2.9396    5.7300    0.6631 H       1  LIG1        0.0293
     46 H           1.9022    6.5361   -0.1943 H       1  LIG1        0.0293
@<TRIPOS>BOND
     1    46    43    1
     2     6     5    1
     3    45    43    1
     4    43    44    1
     5    43    16    1
     6     5     7   ar
     7     5     4   ar
     8     3     4   ar
     9     3    16   ar
    10     8     7    1
    11     7     9   ar
    12     4    13   ar
    13    16    15   ar
    14     9    10    1
    15     9    11   ar
    16    13    11   ar
    17    13    14   ar
    18    15    28    1
    19    15    14   ar
    20     2    28    2
    21    19    18    1
    22    11    12    1
    23    28    29    1
    24    14    17    1
    25    18    17   ar
    26    18    20   ar
    27    29    30    1
    28    29    31    2
    29    17    26   ar
    30    32    31    1
    31    31    33    1
    32    21    20    1
    33    20    22   ar
    34    33    34   ar
    35    33    41   ar
    36    35    34    1
    37    26    27    1
    38    26    24   ar
    39    42    41    1
    40    34    36   ar
    41    41    39   ar
    42    22    24   ar
    43    22    23    1
    44    24    25    1
    45    36    37    1
    46    36    38   ar
    47    39    40    1
    48    39    38   ar
    49    38     1    1
