@<TRIPOS>MOLECULE
(<i>E</i>)-1-Phenyl-2-({5-[(1<i>E</i>)-(2-phenylhydrazin-1-ylidene)methyl]- 2-thienyl}methylidene)hydrazine
 39 41 0 0 0
SMALL
GASTEIGER

@<TRIPOS>ATOM
      1 S           6.7345   10.4429    4.0896 S.2     1  LIG1       -0.0863
      2 N           4.0128   11.7349    3.7120 N.2     1  LIG1       -0.1894
      3 N           2.7668   12.2464    3.5085 N.pl3   1  LIG1       -0.2378
      4 H           2.3552   12.5635    4.2187 H       1  LIG1        0.1744
      5 N           9.1230    8.5707    3.9938 N.2     1  LIG1       -0.1894
      6 N          10.2003    7.7441    3.8894 N.pl3   1  LIG1       -0.2378
      7 H          10.6651    7.6303    4.6400 H       1  LIG1        0.1744
      8 C           5.9006   11.5484    5.1349 C.ar    1  LIG1        0.0323
      9 C           6.5689   11.7165    6.3156 C.ar    1  LIG1       -0.0454
     10 H           6.2715   12.2938    7.0087 H       1  LIG1        0.0629
     11 C           7.7465   10.9453    6.3993 C.ar    1  LIG1       -0.0454
     12 H           8.3248   10.9521    7.1528 H       1  LIG1        0.0629
     13 C           7.9726   10.1823    5.2820 C.ar    1  LIG1        0.0323
     14 C           4.6143   12.0851    4.7883 C.2     1  LIG1        0.0593
     15 H           4.2003   12.7126    5.3692 H       1  LIG1        0.0857
     16 C           2.0047   11.7612    2.4577 C.ar    1  LIG1        0.0483
     17 C           0.6244   12.0187    2.4274 C.ar    1  LIG1       -0.0391
     18 H           0.2097   12.4876    3.1412 H       1  LIG1        0.0636
     19 C          -0.1252   11.5823    1.3517 C.ar    1  LIG1       -0.0600
     20 H          -1.0603   11.7571    1.3303 H       1  LIG1        0.0618
     21 C           0.4632   10.8965    0.3068 C.ar    1  LIG1       -0.0616
     22 H          -0.0634   10.6024   -0.4272 H       1  LIG1        0.0618
     23 C           1.8185   10.6417    0.3335 C.ar    1  LIG1       -0.0600
     24 H           2.2222   10.1674   -0.3839 H       1  LIG1        0.0618
     25 C           2.6017   11.0713    1.3997 C.ar    1  LIG1       -0.0391
     26 H           3.5352   10.8965    1.4086 H       1  LIG1        0.0636
     27 C           9.0376    9.2485    5.0838 C.2     1  LIG1        0.0593
     28 H           9.6886    9.1292    5.7638 H       1  LIG1        0.0857
     29 C          10.2246    6.7453    2.9050 C.ar    1  LIG1        0.0483
     30 C           9.3318    6.7602    1.8263 C.ar    1  LIG1       -0.0391
     31 H           8.6432    7.4107    1.7741 H       1  LIG1        0.0636
     32 C           9.4789    5.7979    0.8325 C.ar    1  LIG1       -0.0600
     33 H           8.8780    5.7952    0.0961 H       1  LIG1        0.0618
     34 C          10.4719    4.8506    0.8936 C.ar    1  LIG1       -0.0616
     35 H          10.5728    4.2149    0.1946 H       1  LIG1        0.0618
     36 C          11.3255    4.8330    1.9818 C.ar    1  LIG1       -0.0600
     37 H          11.9969    4.1634    2.0393 H       1  LIG1        0.0618
     38 C          11.2160    5.7708    2.9840 C.ar    1  LIG1       -0.0391
     39 H          11.8122    5.7545    3.7233 H       1  LIG1        0.0636
@<TRIPOS>BOND
     1    22    21    1
     2    24    23    1
     3    33    32    1
     4    35    34    1
     5    21    23   ar
     6    21    19   ar
     7    23    25   ar
     8    32    34   ar
     9    32    30   ar
    10    34    36   ar
    11    20    19    1
    12    19    17   ar
    13    25    26    1
    14    25    16   ar
    15    31    30    1
    16    30    29   ar
    17    36    37    1
    18    36    38   ar
    19    17    16   ar
    20    17    18    1
    21    16     3    1
    22    29    38   ar
    23    29     6    1
    24    38    39    1
    25     3     2    1
    26     3     4    1
    27     2    14    2
    28     6     5    1
    29     6     7    1
    30     5    27    2
    31     1     8   ar
    32     1    13   ar
    33    14     8    1
    34    14    15    1
    35    27    13    1
    36    27    28    1
    37     8     9   ar
    38    13    11   ar
    39     9    11   ar
    40     9    10    1
    41    11    12    1
