@<TRIPOS>MOLECULE
3-(1-Hydroxy-2-phenylprop-2-en-1-yl)phenol
 62 64 0 0 0
SMALL
GASTEIGER

@<TRIPOS>ATOM
      1 O           9.6848    2.9732    5.3779 O.3     1  LIG1       -0.5068
      2 H           8.9165    2.6333    5.3724 H       1  LIG1        0.2921
      3 O           6.4616    7.0948    5.4467 O.3     1  LIG1       -0.3825
      4 H           7.0475    7.3051    6.0108 H       1  LIG1        0.2107
      5 C           9.6186    4.2586    4.9052 C.ar    1  LIG1        0.1172
      6 C           8.4189    4.9319    4.7768 C.ar    1  LIG1       -0.0142
      7 H           7.6072    4.5075    5.0247 H       1  LIG1        0.0658
      8 C           8.4006    6.2358    4.2830 C.ar    1  LIG1       -0.0113
      9 C           9.5884    6.8551    3.9303 C.ar    1  LIG1       -0.0556
     10 H           9.5793    7.7438    3.5940 H       1  LIG1        0.0621
     11 C          10.7881    6.1767    4.0677 C.ar    1  LIG1       -0.0580
     12 H          11.6025    6.6052    3.8275 H       1  LIG1        0.0619
     13 C          10.8110    4.8779    4.5523 C.ar    1  LIG1       -0.0202
     14 H          11.6354    4.4147    4.6422 H       1  LIG1        0.0654
     15 C           7.0685    6.9551    4.1569 C.3     1  LIG1        0.1053
     16 H           7.2283    7.8662    3.7754 H       1  LIG1        0.0694
     17 C           6.1181    6.2083    3.2488 C.2     1  LIG1       -0.0147
     18 C           5.0800    5.5176    3.7046 C.2     1  LIG1       -0.0922
     19 H           4.5002    5.0738    3.0973 H       1  LIG1        0.0539
     20 H           4.9156    5.4676    4.6397 H       1  LIG1        0.0539
     21 C           6.3911    6.2970    1.7772 C.ar    1  LIG1       -0.0196
     22 C           5.4826    6.9551    0.9630 C.ar    1  LIG1       -0.0543
     23 H           4.7139    7.3591    1.3487 H       1  LIG1        0.0624
     24 C           5.6835    7.0316   -0.4051 C.ar    1  LIG1       -0.0612
     25 H           5.0581    7.4938   -0.9513 H       1  LIG1        0.0618
     26 C           6.7855    6.4409   -0.9751 C.ar    1  LIG1       -0.0617
     27 H           6.9224    6.4909   -1.9150 H       1  LIG1        0.0618
     28 C           7.6958    5.7737   -0.1736 C.ar    1  LIG1       -0.0612
     29 H           8.4517    5.3533   -0.5663 H       1  LIG1        0.0618
     30 C           7.5077    5.7155    1.1962 C.ar    1  LIG1       -0.0543
     31 H           8.1486    5.2758    1.7411 H       1  LIG1        0.0624
     32 O           3.9634   -2.0294    5.6466 O.3     2  LIG2       -0.5068
     33 H           4.7321   -2.3680    5.6481 H       2  LIG2        0.2921
     34 O           7.1911    1.8853    5.1993 O.3     2  LIG2       -0.3825
     35 H           6.6741    2.1334    5.8146 H       2  LIG2        0.2107
     36 C           3.9917   -0.8325    4.9783 C.ar    2  LIG2        0.1172
     37 C           5.1713   -0.1337    4.7935 C.ar    2  LIG2       -0.0142
     38 H           5.9893   -0.4907    5.1191 H       2  LIG2        0.0658
     39 C           5.1640    1.0886    4.1345 C.ar    2  LIG2       -0.0113
     40 C           3.9679    1.6008    3.6479 C.ar    2  LIG2       -0.0556
     41 H           3.9579    2.4292    3.1842 H       2  LIG2        0.0621
     42 C           2.7920    0.8988    3.8429 C.ar    2  LIG2       -0.0580
     43 H           1.9739    1.2529    3.5146 H       2  LIG2        0.0619
     44 C           2.7965   -0.3142    4.5118 C.ar    2  LIG2       -0.0202
     45 H           1.9840   -0.7876    4.6497 H       2  LIG2        0.0654
     46 C           6.4742    1.8416    3.9607 C.3     2  LIG2        0.1053
     47 H           6.2751    2.7771    3.6661 H       2  LIG2        0.0694
     48 C           7.3351    1.1682    2.9108 C.2     2  LIG2       -0.0147
     49 C           8.4088    0.4601    3.2456 C.2     2  LIG2       -0.0922
     50 H           8.9128    0.0153    2.5732 H       2  LIG2        0.0539
     51 H           8.6727    0.3989    4.1554 H       2  LIG2        0.0539
     52 C           6.8768    1.2988    1.5012 C.ar    2  LIG2       -0.0196
     53 C           6.2870    2.4690    1.0290 C.ar    2  LIG2       -0.0543
     54 H           6.1610    3.1995    1.6219 H       2  LIG2        0.0624
     55 C           5.8789    2.5874   -0.2904 C.ar    2  LIG2       -0.0612
     56 H           5.4698    3.3903   -0.5936 H       2  LIG2        0.0618
     57 C           6.0697    1.5355   -1.1642 C.ar    2  LIG2       -0.0617
     58 H           5.8058    1.6171   -2.0740 H       2  LIG2        0.0618
     59 C           6.6403    0.3755   -0.7163 C.ar    2  LIG2       -0.0612
     60 H           6.7691   -0.3489   -1.3164 H       2  LIG2        0.0618
     61 C           7.0320    0.2500    0.6068 C.ar    2  LIG2       -0.0543
     62 H           7.4127   -0.5673    0.9066 H       2  LIG2        0.0624
@<TRIPOS>BOND
     1    58    57    1
     2    27    26    1
     3    60    59    1
     4    57    59   ar
     5    57    55   ar
     6    26    24   ar
     7    26    28   ar
     8    25    24    1
     9    59    61   ar
    10    56    55    1
    11    29    28    1
    12    24    22   ar
    13    55    53   ar
    14    28    30   ar
    15    61    62    1
    16    61    52   ar
    17    22    23    1
    18    22    21   ar
    19    53    52   ar
    20    53    54    1
    21    30    31    1
    22    30    21   ar
    23    52    48    1
    24    21    17    1
    25    50    49    1
    26    48    49    2
    27    48    46    1
    28    19    18    1
    29    41    40    1
    30    49    51    1
    31    17    18    2
    32    17    15    1
    33    43    42    1
    34    10     9    1
    35    40    42   ar
    36    40    39   ar
    37    47    46    1
    38    18    20    1
    39    16    15    1
    40    12    11    1
    41    42    44   ar
    42     9    11   ar
    43     9     8   ar
    44    46    39    1
    45    46    34    1
    46    11    13   ar
    47    39    37   ar
    48    15     8    1
    49    15     3    1
    50     8     6   ar
    51    44    45    1
    52    44    36   ar
    53    13    14    1
    54    13     5   ar
    55     6     5   ar
    56     6     7    1
    57    37    36   ar
    58    37    38    1
    59     5     1    1
    60    36    32    1
    61    34    35    1
    62     2     1    1
    63     3     4    1
    64    32    33    1
