@<TRIPOS>MOLECULE
3-(1-Adamantyl)-1-{[4-(2-methoxyphenyl)piperazin-1-yl]methyl}-4-methyl- 1<i>H</i>-1,2,4-triazole-5(4<i>H</i>)-thione
 67 72 0 0 0
SMALL
GASTEIGER

@<TRIPOS>ATOM
      1 S           7.1322   10.5221    9.7613 S.2     1  LIG1       -0.0112
      2 N           4.8837    9.5604    8.5780 N.ar    1  LIG1       -0.2259
      3 N           5.4458   11.4887    7.8414 N.ar    1  LIG1       -0.3096
      4 N           3.9402    9.8925    7.6234 N.ar    1  LIG1       -0.1540
      5 N           5.2057    7.1183    8.7928 N.3     1  LIG1       -0.2806
      6 N           6.4030    5.4422    6.8131 N.pl3   1  LIG1       -0.3246
      7 O           5.5185    4.9663    4.2751 O.3     1  LIG1       -0.4933
      8 C           5.8187   10.5129    8.7326 C.ar    1  LIG1        0.1791
      9 C           4.3049   11.0612    7.1851 C.ar    1  LIG1        0.1381
     10 C           3.6002   11.7673    6.0568 C.3     1  LIG1        0.0313
     11 C           2.4203   10.8918    5.5955 C.3     1  LIG1       -0.0376
     12 H           2.7515   10.0117    5.3187 H       1  LIG1        0.0277
     13 H           1.7952   10.7628    6.3387 H       1  LIG1        0.0277
     14 C           1.6953   11.5622    4.4225 C.3     1  LIG1       -0.0396
     15 H           0.9448   10.9869    4.1291 H       1  LIG1        0.0301
     16 C           2.6670   11.7500    3.2657 C.3     1  LIG1       -0.0473
     17 H           2.2062   12.1645    2.5070 H       1  LIG1        0.0271
     18 H           3.0148   10.8803    2.9778 H       1  LIG1        0.0271
     19 C           1.1519   12.9138    4.8571 C.3     1  LIG1       -0.0473
     20 H           0.6889   13.3432    4.1072 H       1  LIG1        0.0271
     21 H           0.5096   12.7957    5.5869 H       1  LIG1        0.0271
     22 C           2.3016   13.7857    5.3191 C.3     1  LIG1       -0.0396
     23 H           1.9484   14.6638    5.6070 H       1  LIG1        0.0301
     24 C           3.2817   13.9925    4.1767 C.3     1  LIG1       -0.0473
     25 H           4.0239   14.5584    4.4739 H       1  LIG1        0.0271
     26 H           2.8325   14.4421    3.4303 H       1  LIG1        0.0271
     27 C           3.8142   12.6386    3.7206 C.3     1  LIG1       -0.0396
     28 H           4.4405   12.7738    2.9650 H       1  LIG1        0.0301
     29 C           4.5580   11.9639    4.8741 C.3     1  LIG1       -0.0376
     30 H           5.3153   12.5206    5.1509 H       1  LIG1        0.0277
     31 H           4.9051   11.0959    4.5816 H       1  LIG1        0.0277
     32 C           3.0290   13.1267    6.4949 C.3     1  LIG1       -0.0376
     33 H           2.4047   12.9992    7.2400 H       1  LIG1        0.0277
     34 H           3.7560   13.7079    6.8021 H       1  LIG1        0.0277
     35 C           4.7194    8.3349    9.3768 C.3     1  LIG1        0.0968
     36 H           5.1763    8.4658   10.2342 H       1  LIG1        0.0679
     37 H           3.7655    8.2211    9.5682 H       1  LIG1        0.0679
     38 C           6.6446    7.1521    8.5198 C.3     1  LIG1        0.0163
     39 H           7.1262    7.3876    9.3402 H       1  LIG1        0.0442
     40 H           6.8321    7.8419    7.8495 H       1  LIG1        0.0442
     41 C           7.1366    5.8157    8.0159 C.3     1  LIG1        0.0252
     42 H           8.0945    5.8696    7.8148 H       1  LIG1        0.0476
     43 H           7.0068    5.1330    8.7070 H       1  LIG1        0.0476
     44 C           4.9705    5.3481    7.1320 C.3     1  LIG1        0.0252
     45 H           4.8316    4.6727    7.8276 H       1  LIG1        0.0476
     46 H           4.4729    5.0713    6.3350 H       1  LIG1        0.0476
     47 C           4.4557    6.6876    7.6130 C.3     1  LIG1        0.0163
     48 H           4.5523    7.3537    6.9007 H       1  LIG1        0.0442
     49 H           3.5037    6.6147    7.8367 H       1  LIG1        0.0442
     50 C           6.9237    4.3455    6.0748 C.ar    1  LIG1        0.0720
     51 C           7.9354    3.5254    6.5622 C.ar    1  LIG1       -0.0371
     52 H           8.2725    3.6756    7.4261 H       1  LIG1        0.0637
     53 C           8.4597    2.4898    5.8008 C.ar    1  LIG1       -0.0598
     54 H           9.1594    1.9638    6.1434 H       1  LIG1        0.0618
     55 C           7.9610    2.2338    4.5570 C.ar    1  LIG1       -0.0582
     56 H           8.2882    1.5071    4.0579 H       1  LIG1        0.0619
     57 C           6.9740    3.0461    4.0326 C.ar    1  LIG1       -0.0181
     58 H           6.6446    2.8797    3.1675 H       1  LIG1        0.0655
     59 C           6.4673    4.1005    4.7671 C.ar    1  LIG1        0.1410
     60 C           5.1819    4.8452    2.8920 C.3     1  LIG1        0.0789
     61 H           5.9912    4.8774    2.3574 H       1  LIG1        0.0660
     62 H           4.5964    5.5752    2.6366 H       1  LIG1        0.0660
     63 H           4.7297    4.0003    2.7424 H       1  LIG1        0.0660
     64 C           6.1478   12.7725    7.7737 C.3     1  LIG1        0.0154
     65 H           5.6148   13.4559    8.2107 H       1  LIG1        0.0457
     66 H           6.2879   13.0161    6.8459 H       1  LIG1        0.0457
     67 H           7.0052   12.6963    8.2217 H       1  LIG1        0.0457
@<TRIPOS>BOND
     1    61    60    1
     2    17    16    1
     3    62    60    1
     4    63    60    1
     5    60     7    1
     6    28    27    1
     7    18    16    1
     8    58    57    1
     9    16    27    1
    10    16    14    1
    11    26    24    1
    12    27    24    1
    13    27    29    1
    14    57    55   ar
    15    57    59   ar
    16    56    55    1
    17    20    19    1
    18    15    14    1
    19    24    25    1
    20    24    22    1
    21     7    59    1
    22    14    19    1
    23    14    11    1
    24    55    53   ar
    25    31    29    1
    26    59    50   ar
    27    19    22    1
    28    19    21    1
    29    29    30    1
    30    29    10    1
    31    12    11    1
    32    22    23    1
    33    22    32    1
    34    11    10    1
    35    11    13    1
    36    53    54    1
    37    53    51   ar
    38    10    32    1
    39    10     9    1
    40    50    51   ar
    41    50     6    1
    42    46    44    1
    43    32    34    1
    44    32    33    1
    45    51    52    1
    46     6    44    1
    47     6    41    1
    48    66    64    1
    49    48    47    1
    50    44    47    1
    51    44    45    1
    52     9     4   ar
    53     9     3   ar
    54    47    49    1
    55    47     5    1
    56     4     2   ar
    57    64     3    1
    58    64    65    1
    59    64    67    1
    60    42    41    1
    61     3     8   ar
    62    40    38    1
    63    41    38    1
    64    41    43    1
    65    38     5    1
    66    38    39    1
    67     2     8   ar
    68     2    35    1
    69     8     1    2
    70     5    35    1
    71    35    37    1
    72    35    36    1
