@<TRIPOS>MOLECULE
1-(3-Methylphenyl)pyrrolidine-2,5-dione
 25 26 0 0 0
SMALL
GASTEIGER

@<TRIPOS>ATOM
      1 C          -0.5692    0.7196    6.7392 C.ar    1  LIG1        0.0441
      2 C          -0.1000   -0.0528    7.7878 C.ar    1  LIG1       -0.0369
      3 H           0.1209   -0.9440    7.6402 H       1  LIG1        0.0639
      4 C           0.0428    0.4912    9.0555 C.ar    1  LIG1       -0.0487
      5 C          -0.2662    1.8352    9.2247 C.ar    1  LIG1       -0.0587
      6 H          -0.1740    2.2207   10.0666 H       1  LIG1        0.0620
      7 C          -0.7046    2.6056    8.1743 C.ar    1  LIG1       -0.0597
      8 H          -0.8944    3.5061    8.3088 H       1  LIG1        0.0618
      9 C          -0.8636    2.0504    6.9229 C.ar    1  LIG1       -0.0398
     10 H          -1.1661    2.5693    6.2128 H       1  LIG1        0.0636
     11 C          -1.4950   -1.0562    5.2561 C.2     1  LIG1        0.2266
     12 C          -1.2884   -1.5025    3.8459 C.3     1  LIG1        0.0332
     13 H          -2.1389   -1.6689    3.4100 H       1  LIG1        0.0363
     14 H          -0.7574   -2.3138    3.8172 H       1  LIG1        0.0363
     15 C          -0.5608   -0.3637    3.1787 C.3     1  LIG1        0.0332
     16 H           0.2176   -0.6892    2.6991 H       1  LIG1        0.0363
     17 H          -1.1432    0.0944    2.5531 H       1  LIG1        0.0363
     18 C          -0.1511    0.5539    4.2900 C.2     1  LIG1        0.2266
     19 C           0.4775   -0.3631   10.2147 C.3     1  LIG1       -0.0397
     20 H           1.0397   -1.0727    9.8956 H       1  LIG1        0.0278
     21 H          -0.2953   -0.7354   10.6448 H       1  LIG1        0.0278
     22 H           0.9660    0.1743   10.8427 H       1  LIG1        0.0278
     23 N          -0.7521    0.1083    5.4569 N.am    1  LIG1       -0.2104
     24 O          -2.1639   -1.5929    6.1022 O.2     1  LIG1       -0.2748
     25 O           0.5588    1.5256    4.2322 O.2     1  LIG1       -0.2748
@<TRIPOS>BOND
     1    17    15    1
     2    16    15    1
     3    15    12    1
     4    15    18    1
     5    13    12    1
     6    14    12    1
     7    12    11    1
     8    25    18    2
     9    18    23   am
    10    11    23   am
    11    11    24    2
    12    23     1    1
    13    10     9    1
    14     1     9   ar
    15     1     2   ar
    16     9     7   ar
    17     3     2    1
    18     2     4   ar
    19     7     8    1
    20     7     5   ar
    21     4     5   ar
    22     4    19    1
    23     5     6    1
    24    20    19    1
    25    19    21    1
    26    19    22    1
