@<TRIPOS>MOLECULE
Benzamide--picric acid (1/1)
 35 35 0 0 0
SMALL
GASTEIGER

@<TRIPOS>ATOM
      1 O           1.9794    3.9674    8.2260 O.3     1  LIG1       -0.5027
      2 H           1.7143    4.2822    7.3807 H       1  LIG1        0.2923
      3 O           2.0607    5.9139    6.4338 O.2     1  LIG1       -0.1260
      4 O           3.4322    7.5602    6.7011 O.2     1  LIG1       -0.1260
      5 O           5.3327    8.5159   10.9472 O.2     1  LIG1       -0.1261
      6 O           5.2067    7.0645   12.5480 O.2     1  LIG1       -0.1261
      7 O           2.3576    3.2840   12.0529 O.2     1  LIG1       -0.1260
      8 O           2.4154    2.2656   10.1432 O.2     1  LIG1       -0.1260
      9 N           2.8838    6.5469    7.0988 N.pl3   1  LIG1        0.0602
     10 N           4.9738    7.4374   11.4069 N.pl3   1  LIG1        0.0566
     11 N           2.5725    3.2578   10.8487 N.pl3   1  LIG1        0.0602
     12 C           2.7146    4.8207    8.9002 C.ar    1  LIG1        0.1776
     13 C           3.1942    6.0736    8.4472 C.ar    1  LIG1        0.1718
     14 C           3.9435    6.9230    9.2402 C.ar    1  LIG1        0.0025
     15 H           4.2639    7.7497    8.8995 H       1  LIG1        0.0664
     16 C           4.2140    6.5414   10.5336 C.ar    1  LIG1        0.1307
     17 C           3.7734    5.3415   11.0516 C.ar    1  LIG1        0.0025
     18 H           3.9617    5.1019   11.9523 H       1  LIG1        0.0664
     19 C           3.0564    4.5013   10.2376 C.ar    1  LIG1        0.1718
     20 O           0.6967    3.4640    6.0683 O.2     2  LIG2       -0.2704
     21 N          -0.5308    4.8235    4.7714 N.am    2  LIG2       -0.3253
     22 H          -0.8781    4.9818    3.9867 H       2  LIG2        0.1453
     23 H          -0.5650    5.4129    5.4567 H       2  LIG2        0.1453
     24 C           0.2516    2.6923    3.8746 C.ar    2  LIG2        0.0365
     25 C           0.8891    1.4938    4.1673 C.ar    2  LIG2       -0.0496
     26 H           1.2360    1.3469    5.0385 H       2  LIG2        0.0625
     27 C           1.0251    0.5116    3.2045 C.ar    2  LIG2       -0.0610
     28 H           1.4595   -0.3060    3.4171 H       2  LIG2        0.0618
     29 C           0.5255    0.7229    1.9261 C.ar    2  LIG2       -0.0617
     30 H           0.6218    0.0509    1.2622 H       2  LIG2        0.0618
     31 C          -0.1157    1.9136    1.6201 C.ar    2  LIG2       -0.0610
     32 H          -0.4579    2.0563    0.7465 H       2  LIG2        0.0618
     33 C          -0.2589    2.9001    2.5903 C.ar    2  LIG2       -0.0496
     34 H          -0.7028    3.7134    2.3807 H       2  LIG2        0.0625
     35 C           0.1541    3.7014    4.9792 C.2     2  LIG2        0.2415
@<TRIPOS>BOND
     1    32    31    1
     2    30    29    1
     3    31    29   ar
     4    31    33   ar
     5    29    27   ar
     6    34    33    1
     7    33    24   ar
     8    27    28    1
     9    27    25   ar
    10    24    25   ar
    11    24    35    1
    12    22    21    1
    13    25    26    1
    14    21    35   am
    15    21    23    1
    16    35    20    2
    17     3     9    2
    18     4     9    2
    19     9    13    1
    20     2     1    1
    21     1    12    1
    22    13    12   ar
    23    13    14   ar
    24    15    14    1
    25    12    19   ar
    26    14    16   ar
    27     8    11    2
    28    19    11    1
    29    19    17   ar
    30    16    17   ar
    31    16    10    1
    32    11     7    2
    33     5    10    2
    34    17    18    1
    35    10     6    2
