@<TRIPOS>MOLECULE
4-(3-Methoxyphenyl)-2,6-dimethylcyclohex-3-enecarboxylic acid
 39 40 0 0 0
SMALL
GASTEIGER

@<TRIPOS>ATOM
      1 O          -0.1338    0.4977   17.6426 O.2     1  LIG1       -0.2507
      2 O           0.2962    1.7755   15.8543 O.3     1  LIG1       -0.4804
      3 H           0.1986    0.9568   15.3951 H       1  LIG1        0.2951
      4 O           2.1127    6.1004   24.5675 O.3     1  LIG1       -0.4951
      5 C          -0.7919    4.4858   19.4926 C.3     1  LIG1       -0.0240
      6 H          -0.8053    5.2151   18.8244 H       1  LIG1        0.0316
      7 H          -1.5478    4.6340   20.1132 H       1  LIG1        0.0316
      8 C          -0.9946    3.1510   18.7755 C.3     1  LIG1       -0.0264
      9 H          -1.1374    2.4374   19.4608 H       1  LIG1        0.0309
     10 C           0.2944    2.8319   17.9907 C.3     1  LIG1        0.0651
     11 H           0.4920    3.6012   17.3845 H       1  LIG1        0.0422
     12 C           1.5007    2.6429   18.9446 C.3     1  LIG1       -0.0120
     13 H           1.4209    1.7465   19.3804 H       1  LIG1        0.0348
     14 C           1.5049    3.6976   20.0200 C.2     1  LIG1       -0.0766
     15 H           2.2792    3.7612   20.5664 H       1  LIG1        0.0578
     16 C           0.5000    4.5579   20.2672 C.2     1  LIG1       -0.0435
     17 C           0.6351    5.6527   21.2744 C.ar    1  LIG1       -0.0187
     18 C           1.2996    5.4253   22.4835 C.ar    1  LIG1       -0.0126
     19 H           1.6548    4.5642   22.6716 H       1  LIG1        0.0660
     20 C           1.4450    6.4566   23.4166 C.ar    1  LIG1        0.1207
     21 C           0.9312    7.7207   23.1652 C.ar    1  LIG1       -0.0199
     22 H           1.0260    8.4195   23.8029 H       1  LIG1        0.0654
     23 C           0.2722    7.9411   21.9564 C.ar    1  LIG1       -0.0577
     24 H          -0.0739    8.8053   21.7652 H       1  LIG1        0.0619
     25 C           0.1112    6.9232   21.0270 C.ar    1  LIG1       -0.0541
     26 H          -0.3574    7.0910   20.2193 H       1  LIG1        0.0624
     27 C          -2.2185    3.2075   17.8637 C.3     1  LIG1       -0.0613
     28 H          -2.3752    2.3229   17.4713 H       1  LIG1        0.0233
     29 H          -2.0630    3.8584   17.1467 H       1  LIG1        0.0233
     30 H          -3.0029    3.4765   18.3873 H       1  LIG1        0.0233
     31 C           0.1307    1.5928   17.1480 C.2     1  LIG1        0.3086
     32 C           2.8116    2.6805   18.1488 C.3     1  LIG1       -0.0582
     33 H           3.5689    2.5699   18.7601 H       1  LIG1        0.0236
     34 H           2.8882    3.5408   17.6866 H       1  LIG1        0.0236
     35 H           2.8154    1.9543   17.4906 H       1  LIG1        0.0236
     36 C           2.1273    7.0479   25.6387 C.3     1  LIG1        0.0788
     37 H           2.5682    6.6526   26.4191 H       1  LIG1        0.0660
     38 H           1.2069    7.2910   25.8727 H       1  LIG1        0.0660
     39 H           2.6157    7.8501   25.3585 H       1  LIG1        0.0660
@<TRIPOS>BOND
     1     3     2    1
     2     2    31    1
     3    29    27    1
     4    31     1    2
     5    31    10    1
     6    11    10    1
     7    28    27    1
     8    35    32    1
     9    34    32    1
    10    27    30    1
    11    27     8    1
    12    10     8    1
    13    10    12    1
    14    32    33    1
    15    32    12    1
    16     8     9    1
    17     8     5    1
    18     6     5    1
    19    12    13    1
    20    12    14    1
    21     5     7    1
    22     5    16    1
    23    14    16    2
    24    14    15    1
    25    26    25    1
    26    16    17    1
    27    25    17   ar
    28    25    23   ar
    29    17    18   ar
    30    24    23    1
    31    23    21   ar
    32    18    19    1
    33    18    20   ar
    34    21    20   ar
    35    21    22    1
    36    20     4    1
    37     4    36    1
    38    39    36    1
    39    36    38    1
    40    36    37    1
