@<TRIPOS>MOLECULE
2-Hydroxy-<i>N</i>,</i>N</i>'-diisopropylpropane-1,3-diaminium dichloride
 38 35 0 0 0
SMALL
GASTEIGER

@<TRIPOS>ATOM
      1 CL          1.5824    0.9700    8.5931 Cl      1  LIG1        0.0000
      2 CL          5.1827    4.4845    1.9977 Cl      2  LIG2        0.0000
      3 N           0.8787    2.1938    2.7497 N.4     3  LIG3        0.2307
      4 H           0.4692    1.4267    2.5171 H       3  LIG3        0.2017
      5 H           0.3568    2.8721    2.4718 H       3  LIG3        0.2017
      6 N           3.1040    2.4912   -1.6380 N.4     3  LIG3        0.2307
      7 H           2.7618    3.3164   -1.7460 H       3  LIG3        0.2017
      8 H           2.5060    1.9049   -1.9679 H       3  LIG3        0.2017
      9 O           1.2301    0.9571    0.3356 O.3     3  LIG3       -0.3815
     10 H           1.1421    0.8155   -0.4676 H       3  LIG3        0.2103
     11 C           2.1675    2.2713    2.0197 C.3     3  LIG3       -0.0017
     12 H           2.7463    1.5454    2.3020 H       3  LIG3        0.0841
     13 H           2.6102    3.1093    2.2284 H       3  LIG3        0.0841
     14 C           1.9272    2.1803    0.5272 C.3     3  LIG3        0.1342
     15 H           1.3665    2.9293    0.2366 H       3  LIG3        0.0701
     16 C           3.2606    2.2349   -0.1855 C.3     3  LIG3       -0.0017
     17 H           3.8034    2.9373    0.2061 H       3  LIG3        0.0841
     18 H           3.7249    1.3929   -0.0577 H       3  LIG3        0.0841
     19 C           0.9607    2.2470    4.2570 C.3     3  LIG3       -0.0283
     20 H           0.0479    2.1584    4.6028 H       3  LIG3        0.0845
     21 C           1.7576    1.0786    4.7873 C.3     3  LIG3       -0.0219
     22 H           1.4338    0.2646    4.3933 H       3  LIG3        0.0284
     23 H           1.6616    1.0323    5.7419 H       3  LIG3        0.0284
     24 H           2.6838    1.1948    4.5643 H       3  LIG3        0.0284
     25 C           1.4863    3.5915    4.7103 C.3     3  LIG3       -0.0219
     26 H           2.3977    3.6919    4.4250 H       3  LIG3        0.0284
     27 H           1.4433    3.6459    5.6683 H       3  LIG3        0.0284
     28 H           0.9522    4.2910    4.3265 H       3  LIG3        0.0284
     29 C           4.3713    2.3890   -2.4507 C.3     3  LIG3       -0.0283
     30 H           4.7428    1.4887   -2.3427 H       3  LIG3        0.0845
     31 C           5.3909    3.3950   -1.9657 C.3     3  LIG3       -0.0219
     32 H           5.0219    4.2788   -2.0268 H       3  LIG3        0.0284
     33 H           6.1798    3.3389   -2.5092 H       3  LIG3        0.0284
     34 H           5.6176    3.2050   -1.0519 H       3  LIG3        0.0284
     35 C           4.0128    2.5942   -3.9036 C.3     3  LIG3       -0.0219
     36 H           3.3534    1.9475   -4.1646 H       3  LIG3        0.0284
     37 H           4.7982    2.4865   -4.4454 H       3  LIG3        0.0284
     38 H           3.6597    3.4782   -4.0242 H       3  LIG3        0.0284
@<TRIPOS>BOND
     1    37    35    1
     2    36    35    1
     3    38    35    1
     4    35    29    1
     5    33    31    1
     6    29    30    1
     7    29    31    1
     8    29     6    1
     9    32    31    1
    10     8     6    1
    11    31    34    1
    12     7     6    1
    13     6    16    1
    14    10     9    1
    15    16    18    1
    16    16    17    1
    17    16    14    1
    18    15    14    1
    19     9    14    1
    20    14    11    1
    21    11    13    1
    22    11    12    1
    23    11     3    1
    24     5     3    1
    25     4     3    1
    26     3    19    1
    27    19    20    1
    28    19    25    1
    29    19    21    1
    30    28    25    1
    31    22    21    1
    32    26    25    1
    33    24    21    1
    34    25    27    1
    35    21    23    1
