@<TRIPOS>MOLECULE
(<i>E</i>)-3-(3-Chlorophenyl)-1-(4-methoxyphenyl)prop-2-en-1-one
 32 33 0 0 0
SMALL
GASTEIGER

@<TRIPOS>ATOM
      1 CL          3.3338    3.2847   -1.1831 Cl      1  LIG1       -0.0835
      2 O          11.3031    2.2896    5.7387 O.3     1  LIG1       -0.4951
      3 O           5.0053    2.4889    6.3765 O.2     1  LIG1       -0.2873
      4 C           7.1647    2.4640    5.4201 C.ar    1  LIG1        0.0219
      5 C           8.0079    2.9285    4.4039 C.ar    1  LIG1       -0.0475
      6 H           7.6344    3.3043    3.6152 H       1  LIG1        0.0626
      7 C           9.3812    2.8440    4.5389 C.ar    1  LIG1       -0.0193
      8 H           9.9471    3.1637    3.8458 H       1  LIG1        0.0654
      9 C           9.9352    2.2911    5.6905 C.ar    1  LIG1        0.1201
     10 C           9.1126    1.7935    6.7007 C.ar    1  LIG1       -0.0193
     11 H           9.4872    1.3959    7.4772 H       1  LIG1        0.0654
     12 C           7.7420    1.8889    6.5503 C.ar    1  LIG1       -0.0475
     13 H           7.1776    1.5532    7.2369 H       1  LIG1        0.0626
     14 C          11.9238    1.7320    6.9010 C.3     1  LIG1        0.0788
     15 H          12.8974    1.8087    6.8193 H       1  LIG1        0.0660
     16 H          11.6762    0.7873    6.9821 H       1  LIG1        0.0660
     17 H          11.6236    2.2183    7.6965 H       1  LIG1        0.0660
     18 C           5.6896    2.6307    5.3711 C.2     1  LIG1        0.1861
     19 C           5.0591    2.9733    4.0701 C.2     1  LIG1       -0.0138
     20 H           5.5389    2.8063    3.2669 H       1  LIG1        0.0656
     21 C           3.8492    3.5044    3.9961 C.2     1  LIG1       -0.0509
     22 H           3.4155    3.6866    4.8214 H       1  LIG1        0.0625
     23 C           3.1036    3.8424    2.7758 C.ar    1  LIG1       -0.0235
     24 C           3.5549    3.4729    1.4991 C.ar    1  LIG1       -0.0362
     25 H           4.3792    3.0119    1.3948 H       1  LIG1        0.0638
     26 C           2.7868    3.7875    0.3980 C.ar    1  LIG1        0.0415
     27 C           1.5766    4.4553    0.5083 C.ar    1  LIG1       -0.0434
     28 H           1.0621    4.6570   -0.2645 H       1  LIG1        0.0632
     29 C           1.1349    4.8217    1.7660 C.ar    1  LIG1       -0.0598
     30 H           0.3101    5.2827    1.8608 H       1  LIG1        0.0618
     31 C           1.8918    4.5191    2.8941 C.ar    1  LIG1       -0.0545
     32 H           1.5789    4.7769    3.7539 H       1  LIG1        0.0623
@<TRIPOS>BOND
     1     1    26    1
     2    28    27    1
     3    26    27   ar
     4    26    24   ar
     5    27    29   ar
     6    25    24    1
     7    24    23   ar
     8    29    30    1
     9    29    31   ar
    10    23    31   ar
    11    23    21    1
    12    31    32    1
    13    20    19    1
    14     6     5    1
    15     8     7    1
    16    21    19    2
    17    21    22    1
    18    19    18    1
    19     5     7   ar
    20     5     4   ar
    21     7     9   ar
    22    18     4    1
    23    18     3    2
    24     4    12   ar
    25     9     2    1
    26     9    10   ar
    27     2    14    1
    28    12    10   ar
    29    12    13    1
    30    10    11    1
    31    15    14    1
    32    14    16    1
    33    14    17    1
