@<TRIPOS>MOLECULE
Methyl 3-(4-methylbenzylidene)carbazate
 26 26 0 0 0
SMALL
GASTEIGER

@<TRIPOS>ATOM
      1 O           4.1705   10.9855    1.4743 O.3     1  LIG1       -0.4528
      2 C           5.3748   10.8692    0.8902 C.2     1  LIG1        0.4151
      3 N           7.4012    9.7267    1.1497 N.3     1  LIG1       -0.1302
      4 O           5.7118   11.4901   -0.0928 O.2     1  LIG1       -0.2251
      5 C           9.3548    8.3838    1.4908 C.ar    1  LIG1       -0.0253
      6 N           6.1121    9.9762    1.5551 N.am    1  LIG1       -0.1981
      7 H           5.7824    9.5605    2.2320 H       1  LIG1        0.1740
      8 C           7.9837    8.7838    1.7750 C.3     1  LIG1        0.0931
      9 H           7.5156    8.3321    2.4394 H       1  LIG1        0.0564
     10 C          11.4995    8.7210    0.4601 C.ar    1  LIG1       -0.0585
     11 H          12.0599    9.2504   -0.0599 H       1  LIG1        0.0620
     12 C          11.9775    7.5168    0.9616 C.ar    1  LIG1       -0.0504
     13 C          11.1174    6.7555    1.7243 C.ar    1  LIG1       -0.0585
     14 H          11.4097    5.9420    2.0676 H       1  LIG1        0.0620
     15 C           9.8345    7.1766    1.9855 C.ar    1  LIG1       -0.0567
     16 H           9.2763    6.6434    2.5039 H       1  LIG1        0.0621
     17 C          10.2155    9.1498    0.7151 C.ar    1  LIG1       -0.0567
     18 H           9.9224    9.9597    0.3648 H       1  LIG1        0.0621
     19 C           3.2552   11.8766    0.8042 C.3     1  LIG1        0.0833
     20 H           2.4212   11.8947    1.2788 H       1  LIG1        0.0661
     21 H           3.1075   11.5686   -0.0922 H       1  LIG1        0.0661
     22 H           3.6296   12.7610    0.7811 H       1  LIG1        0.0661
     23 C          13.4001    7.0850    0.7020 C.3     1  LIG1       -0.0397
     24 H          13.5588    6.2375    1.1237 H       1  LIG1        0.0278
     25 H          14.0029    7.7386    1.0622 H       1  LIG1        0.0278
     26 H          13.5418    7.0040   -0.2435 H       1  LIG1        0.0278
@<TRIPOS>BOND
     1    26    23    1
     2     4     2    2
     3    21    19    1
     4    11    10    1
     5    18    17    1
     6    10    17   ar
     7    10    12   ar
     8    23    12    1
     9    23    25    1
    10    23    24    1
    11    17     5   ar
    12    22    19    1
    13    19    20    1
    14    19     1    1
    15     2     1    1
    16     2     6   am
    17    12    13   ar
    18     3     6    1
    19     3     8    1
    20     5     8    1
    21     5    15   ar
    22     6     7    1
    23    13    15   ar
    24    13    14    1
    25     8     9    1
    26    15    16    1
