@<TRIPOS>MOLECULE
Dibutyl 5-[(4-ethoxycarbonylphenyl)diazenyl]benzene-1,3-dicarboxylate
 63 64 0 0 0
SMALL
GASTEIGER

@<TRIPOS>ATOM
      1 O           7.3715    2.0479    6.4664 O.3     1  LIG1       -0.4612
      2 O           5.3477    2.7580    7.0987 O.2     1  LIG1       -0.2450
      3 O           6.5716   -0.3482    0.7801 O.2     1  LIG1       -0.2450
      4 O           7.9419   -0.5370    2.5210 O.3     1  LIG1       -0.4612
      5 O          -3.5010    3.9983    0.3989 O.3     1  LIG1       -0.4614
      6 O          -3.8231    5.3312    2.1439 O.2     1  LIG1       -0.2450
      7 N           2.6750    2.2745    2.6758 N.pl3   1  LIG1       -0.1293
      8 N           1.9399    2.8931    3.4595 N.pl3   1  LIG1       -0.1294
      9 C          11.6096   -1.7653    4.3991 C.3     1  LIG1       -0.0652
     10 H          12.1557   -2.3803    3.9033 H       1  LIG1        0.0230
     11 H          11.4519   -2.1155    5.2794 H       1  LIG1        0.0230
     12 H          12.0601   -0.9207    4.4661 H       1  LIG1        0.0230
     13 C          10.3837   -1.5914    3.7385 C.3     1  LIG1       -0.0528
     14 H           9.8443   -2.3445    4.0252 H       1  LIG1        0.0264
     15 H           9.9897   -0.8117    4.1592 H       1  LIG1        0.0264
     16 C          10.0982   -1.4503    2.4454 C.3     1  LIG1       -0.0188
     17 H          10.5520   -2.1940    2.0193 H       1  LIG1        0.0298
     18 H          10.5907   -0.6589    2.1774 H       1  LIG1        0.0298
     19 C           8.8536   -1.3468    1.7419 C.3     1  LIG1        0.0928
     20 H           8.4764   -2.2296    1.6053 H       1  LIG1        0.0697
     21 H           8.9975   -0.9391    0.8737 H       1  LIG1        0.0697
     22 C           9.7414    0.0780    7.8361 C.3     1  LIG1       -0.0652
     23 H           9.7305    0.2827    8.7740 H       1  LIG1        0.0230
     24 H          10.3927   -0.6065    7.6646 H       1  LIG1        0.0230
     25 H           8.8738   -0.2315    7.5654 H       1  LIG1        0.0230
     26 C          10.0747    1.2365    7.1058 C.3     1  LIG1       -0.0528
     27 H           9.8266    1.1012    6.1785 H       1  LIG1        0.0264
     28 H          11.0362    1.3576    7.1380 H       1  LIG1        0.0264
     29 C           9.4224    2.4763    7.5976 C.3     1  LIG1       -0.0188
     30 H           9.6686    3.1990    6.9986 H       1  LIG1        0.0298
     31 H           9.7973    2.6850    8.4672 H       1  LIG1        0.0298
     32 C           7.9314    2.4794    7.7302 C.3     1  LIG1        0.0928
     33 H           7.6578    1.8775    8.4391 H       1  LIG1        0.0697
     34 H           7.6180    3.3710    7.9473 H       1  LIG1        0.0697
     35 C           6.0715    2.2584    6.2831 C.2     1  LIG1        0.3393
     36 C           5.6241    1.8343    4.9246 C.ar    1  LIG1        0.0616
     37 C           6.4413    1.0694    4.0936 C.ar    1  LIG1       -0.0337
     38 H           7.2819    0.7989    4.3870 H       1  LIG1        0.0634
     39 C           5.9979    0.7126    2.8281 C.ar    1  LIG1        0.0616
     40 C           6.8425   -0.1095    1.9202 C.2     1  LIG1        0.3393
     41 C           4.7486    1.1324    2.3932 C.ar    1  LIG1       -0.0232
     42 H           4.4543    0.9048    1.5410 H       1  LIG1        0.0645
     43 C           3.9403    1.8880    3.2221 C.ar    1  LIG1        0.0739
     44 C           4.3659    2.2251    4.4980 C.ar    1  LIG1       -0.0232
     45 H           3.8095    2.7103    5.0637 H       1  LIG1        0.0645
     46 C           0.6861    3.2739    2.9025 C.ar    1  LIG1        0.0724
     47 C           0.2288    2.8511    1.6562 C.ar    1  LIG1       -0.0364
     48 H           0.7519    2.2915    1.1282 H       1  LIG1        0.0637
     49 C          -0.9999    3.2700    1.2140 C.ar    1  LIG1       -0.0459
     50 H          -1.3097    2.9844    0.3846 H       1  LIG1        0.0626
     51 C          -1.7890    4.1144    1.9831 C.ar    1  LIG1        0.0591
     52 C          -1.3274    4.5237    3.2213 C.ar    1  LIG1       -0.0459
     53 H          -1.8478    5.0891    3.7465 H       1  LIG1        0.0626
     54 C          -0.1000    4.0983    3.6768 C.ar    1  LIG1       -0.0364
     55 H           0.2001    4.3688    4.5143 H       1  LIG1        0.0637
     56 C          -3.1312    4.5624    1.5450 C.2     1  LIG1        0.3392
     57 C          -4.8223    4.3390   -0.0965 C.3     1  LIG1        0.0900
     58 H          -4.8793    5.2932   -0.2640 H       1  LIG1        0.0695
     59 H          -5.4951    4.1028    0.5614 H       1  LIG1        0.0695
     60 C          -5.0507    3.5963   -1.3373 C.3     1  LIG1       -0.0306
     61 H          -4.3531    3.7999   -1.9657 H       1  LIG1        0.0262
     62 H          -5.8990    3.8483   -1.7098 H       1  LIG1        0.0262
     63 H          -5.0491    2.6541   -1.1524 H       1  LIG1        0.0262
@<TRIPOS>BOND
     1    61    60    1
     2    62    60    1
     3    60    63    1
     4    60    57    1
     5    58    57    1
     6    57     5    1
     7    57    59    1
     8    50    49    1
     9     5    56    1
    10     3    40    2
    11    21    19    1
    12    48    47    1
    13    49    47   ar
    14    49    51   ar
    15    42    41    1
    16    56    51    1
    17    56     6    2
    18    20    19    1
    19    47    46   ar
    20    19    16    1
    21    19     4    1
    22    40     4    1
    23    40    39    1
    24    51    52   ar
    25    17    16    1
    26    18    16    1
    27    41    39   ar
    28    41    43   ar
    29    16    13    1
    30     7    43    1
    31     7     8    1
    32    39    37   ar
    33    46     8    1
    34    46    54   ar
    35    52    54   ar
    36    52    53    1
    37    43    44   ar
    38    54    55    1
    39    13    14    1
    40    13    15    1
    41    13     9    1
    42    10     9    1
    43    37    38    1
    44    37    36   ar
    45     9    12    1
    46     9    11    1
    47    44    36   ar
    48    44    45    1
    49    36    35    1
    50    27    26    1
    51    35     1    1
    52    35     2    2
    53     1    32    1
    54    30    29    1
    55    26    28    1
    56    26    29    1
    57    26    22    1
    58    25    22    1
    59    29    32    1
    60    29    31    1
    61    24    22    1
    62    32    34    1
    63    32    33    1
    64    22    23    1
