@<TRIPOS>MOLECULE
4-Methyl-<i>N</i>-(2-methylbenzoyl)benzenesulfonamide
 35 36 0 0 0
SMALL
GASTEIGER

@<TRIPOS>ATOM
      1 S           4.8065    1.6728    0.1072 S.O2    1  LIG1        0.0746
      2 O           5.6896    1.1046   -0.8714 O.2     1  LIG1       -0.1499
      3 O           3.4946    2.0476   -0.2900 O.2     1  LIG1       -0.1499
      4 O           3.1663    1.4883    2.5872 O.2     1  LIG1       -0.2686
      5 N           4.7417    0.5172    1.2859 N.am    1  LIG1       -0.1815
      6 H           5.3585   -0.0595    1.2067 H       1  LIG1        0.1769
      7 C           5.5966    3.0416    0.8667 C.ar    1  LIG1        0.1086
      8 C           4.9091    4.2269    1.0390 C.ar    1  LIG1       -0.0348
      9 H           4.0251    4.3039    0.7624 H       1  LIG1        0.0637
     10 C           5.5546    5.2964    1.6295 C.ar    1  LIG1       -0.0570
     11 H           5.1064    6.1056    1.7214 H       1  LIG1        0.0621
     12 C           6.8527    5.1858    2.0855 C.ar    1  LIG1       -0.0503
     13 C           7.5159    3.9751    1.9093 C.ar    1  LIG1       -0.0570
     14 H           8.3893    3.8850    2.2147 H       1  LIG1        0.0621
     15 C           6.9082    2.9121    1.2932 C.ar    1  LIG1       -0.0348
     16 H           7.3696    2.1159    1.1629 H       1  LIG1        0.0637
     17 C           3.9709    0.6041    2.4311 C.2     1  LIG1        0.2633
     18 C           4.2178   -0.4637    3.4472 C.ar    1  LIG1        0.0411
     19 C           5.3617   -0.4277    4.2474 C.ar    1  LIG1       -0.0383
     20 C           5.4700   -1.3895    5.2581 C.ar    1  LIG1       -0.0581
     21 H           6.2192   -1.3899    5.8091 H       1  LIG1        0.0620
     22 C           4.4888   -2.3306    5.4524 C.ar    1  LIG1       -0.0615
     23 H           4.5817   -2.9607    6.1305 H       1  LIG1        0.0618
     24 C           3.3747   -2.3523    4.6558 C.ar    1  LIG1       -0.0610
     25 H           2.7173   -2.9962    4.7904 H       1  LIG1        0.0618
     26 C           3.2313   -1.4195    3.6574 C.ar    1  LIG1       -0.0493
     27 H           2.4720   -1.4279    3.1213 H       1  LIG1        0.0625
     28 C           7.5496    6.3359    2.7721 C.3     1  LIG1       -0.0397
     29 H           7.0542    7.1449    2.6248 H       1  LIG1        0.0278
     30 H           8.4352    6.4326    2.4155 H       1  LIG1        0.0278
     31 H           7.6026    6.1606    3.7150 H       1  LIG1        0.0278
     32 C           6.4079    0.6354    4.0845 C.3     1  LIG1       -0.0390
     33 H           6.9818    0.4092    3.3488 H       1  LIG1        0.0278
     34 H           6.9281    0.6979    4.8886 H       1  LIG1        0.0278
     35 H           5.9828    1.4784    3.9115 H       1  LIG1        0.0278
@<TRIPOS>BOND
     1     2     1    2
     2     3     1    2
     3     1     7    1
     4     1     5    1
     5     9     8    1
     6     7     8   ar
     7     7    15   ar
     8     8    10   ar
     9    16    15    1
    10     6     5    1
    11     5    17   am
    12    15    13   ar
    13    10    11    1
    14    10    12   ar
    15    13    12   ar
    16    13    14    1
    17    12    28    1
    18    30    28    1
    19    17     4    2
    20    17    18    1
    21    29    28    1
    22    28    31    1
    23    27    26    1
    24    33    32    1
    25    18    26   ar
    26    18    19   ar
    27    26    24   ar
    28    35    32    1
    29    32    19    1
    30    32    34    1
    31    19    20   ar
    32    24    25    1
    33    24    22   ar
    34    20    22   ar
    35    20    21    1
    36    22    23    1
