@<TRIPOS>MOLECULE
2-(3-Methoxyphenoxy)pyrimidine
 25 26 0 0 0
SMALL
GASTEIGER

@<TRIPOS>ATOM
      1 O           2.6375    0.4432    3.1411 O.3     1  LIG1       -0.4235
      2 O           5.6145    3.8833    1.9293 O.3     1  LIG1       -0.4950
      3 N           0.8286    1.7224    2.5242 N.ar    1  LIG1       -0.2030
      4 N           0.7860   -0.6596    2.5480 N.ar    1  LIG1       -0.2030
      5 C           1.3474    0.5304    2.7170 C.ar    1  LIG1        0.3233
      6 C          -0.4478    1.7138    2.1102 C.ar    1  LIG1        0.0344
      7 H          -0.8758    2.5264    1.9657 H       1  LIG1        0.0832
      8 C          -1.1404    0.5639    1.8941 C.ar    1  LIG1       -0.0252
      9 H          -2.0246    0.5720    1.6051 H       1  LIG1        0.0648
     10 C          -0.4734   -0.6022    2.1227 C.ar    1  LIG1        0.0344
     11 H          -0.9233   -1.4026    1.9732 H       1  LIG1        0.0832
     12 C           3.2791    1.6448    3.4853 C.ar    1  LIG1        0.1354
     13 C           4.1330    2.2102    2.5744 C.ar    1  LIG1        0.0225
     14 H           4.2648    1.8124    1.7439 H       1  LIG1        0.0691
     15 C           4.8012    3.3825    2.9042 C.ar    1  LIG1        0.1236
     16 C           4.6102    3.9583    4.1481 C.ar    1  LIG1       -0.0197
     17 H           5.0488    4.7450    4.3787 H       1  LIG1        0.0654
     18 C           3.7532    3.3397    5.0427 C.ar    1  LIG1       -0.0548
     19 H           3.6248    3.7250    5.8795 H       1  LIG1        0.0620
     20 C           3.0890    2.1818    4.7386 C.ar    1  LIG1       -0.0190
     21 H           2.5279    1.7723    5.3581 H       1  LIG1        0.0654
     22 C           6.1798    5.1721    2.1428 C.3     1  LIG1        0.0788
     23 H           6.6728    5.4390    1.3626 H       1  LIG1        0.0660
     24 H           6.7699    5.1421    2.8992 H       1  LIG1        0.0660
     25 H           5.4780    5.8051    2.3093 H       1  LIG1        0.0660
@<TRIPOS>BOND
     1    23    22    1
     2     9     8    1
     3    14    13    1
     4     8     6   ar
     5     8    10   ar
     6     2    22    1
     7     2    15    1
     8     7     6    1
     9    11    10    1
    10     6     3   ar
    11    10     4   ar
    12    22    25    1
    13    22    24    1
    14     3     5   ar
    15     4     5   ar
    16    13    15   ar
    17    13    12   ar
    18     5     1    1
    19    15    16   ar
    20     1    12    1
    21    12    20   ar
    22    16    17    1
    23    16    18   ar
    24    20    18   ar
    25    20    21    1
    26    18    19    1
