@<TRIPOS>MOLECULE
2-(4-Hydroxyphenyl)acetic acid--4,4'-bipyridine (1/1)
 39 40 0 0 0
SMALL
GASTEIGER

@<TRIPOS>ATOM
      1 C          13.5236    3.2978    0.5844 C.ar    1  LIG1       -0.0365
      2 C          12.6788    2.9521    1.6178 C.ar    1  LIG1       -0.0546
      3 H          12.2171    2.1464    1.5756 H       1  LIG1        0.0622
      4 C          12.5014    3.7706    2.7110 C.ar    1  LIG1       -0.0199
      5 H          11.9330    3.5101    3.3994 H       1  LIG1        0.0654
      6 C          13.1702    4.9802    2.7865 C.ar    1  LIG1        0.1169
      7 C          14.0146    5.3437    1.7601 C.ar    1  LIG1       -0.0199
      8 H          14.4716    6.1526    1.7997 H       1  LIG1        0.0654
      9 C          14.1824    4.5088    0.6741 C.ar    1  LIG1       -0.0546
     10 H          14.7514    4.7674   -0.0133 H       1  LIG1        0.0622
     11 C          13.7001    2.3949   -0.6129 C.3     1  LIG1        0.0699
     12 H          12.8207    2.1218   -0.9215 H       1  LIG1        0.0426
     13 H          14.1132    2.9085   -1.3251 H       1  LIG1        0.0426
     14 C          14.5257    1.1604   -0.3815 C.2     1  LIG1        0.3091
     15 C           6.0082    0.3550    1.6530 C.ar    2  LIG2       -0.0149
     16 C           5.4197   -0.8414    1.2622 C.ar    2  LIG2       -0.0359
     17 H           4.6015   -0.8399    0.8191 H       2  LIG2        0.0639
     18 C           6.0562   -2.0227    1.5366 C.ar    2  LIG2        0.0281
     19 H           5.6353   -2.8124    1.2853 H       2  LIG2        0.0830
     20 C           7.8088   -0.9594    2.5047 C.ar    2  LIG2        0.0281
     21 H           8.6413   -0.9903    2.9188 H       2  LIG2        0.0830
     22 C           7.2284    0.2669    2.2991 C.ar    2  LIG2       -0.0359
     23 H           7.6553    1.0384    2.5935 H       2  LIG2        0.0639
     24 C           5.3613    1.6657    1.3993 C.ar    2  LIG2       -0.0149
     25 C           4.4389    1.8354    0.3787 C.ar    2  LIG2       -0.0359
     26 H           4.2225    1.1223   -0.1771 H       2  LIG2        0.0639
     27 C           3.8445    3.0655    0.1912 C.ar    2  LIG2        0.0281
     28 H           3.2012    3.1489   -0.4746 H       2  LIG2        0.0830
     29 C           5.0489    3.9838    1.8787 C.ar    2  LIG2        0.0281
     30 H           5.2795    4.7255    2.3887 H       2  LIG2        0.0830
     31 C           5.6634    2.7817    2.1628 C.ar    2  LIG2       -0.0359
     32 H           6.2740    2.7213    2.8609 H       2  LIG2        0.0639
     33 N           7.2378   -2.1122    2.1396 N.ar    2  LIG2       -0.2632
     34 N           4.1470    4.1412    0.9183 N.ar    2  LIG2       -0.2632
     35 O          14.3477    0.1517   -0.9863 O.2     1  LIG1       -0.2507
     36 O          15.4816    1.3051    0.5015 O.3     1  LIG1       -0.4804
     37 H          15.9655    0.4706    0.6409 H       1  LIG1        0.2951
     38 O          12.9575    5.7494    3.8915 O.3     1  LIG1       -0.5068
     39 H          13.4073    6.4964    3.7945 H       1  LIG1        0.2921
@<TRIPOS>BOND
     1    13    11    1
     2    35    14    2
     3    12    11    1
     4    11    14    1
     5    11     1    1
     6    28    27    1
     7    14    36    1
     8    26    25    1
     9    10     9    1
    10    27    25   ar
    11    27    34   ar
    12    25    24   ar
    13    36    37    1
    14     1     9   ar
    15     1     2   ar
    16     9     7   ar
    17    17    16    1
    18    34    29   ar
    19    16    18   ar
    20    16    15   ar
    21    19    18    1
    22    24    15    1
    23    24    31   ar
    24    18    33   ar
    25     3     2    1
    26     2     4   ar
    27    15    22   ar
    28     7     8    1
    29     7     6   ar
    30    29    31   ar
    31    29    30    1
    32    33    20   ar
    33    31    32    1
    34    22    20   ar
    35    22    23    1
    36    20    21    1
    37     4     6   ar
    38     4     5    1
    39     6    38    1
    40    39    38    1
