@<TRIPOS>MOLECULE
1-Ethylsulfinyl-2-(4-iodophenyl)naphtho[2,1-<i>b</i>]furan
 39 42 0 0 0
SMALL
GASTEIGER

@<TRIPOS>ATOM
      1 I          -2.5756    3.4473    9.1640 I       1  LIG1       -0.0438
      2 S           1.7840    9.5161    8.4392 S.3     1  LIG1       -0.0077
      3 O           3.5340    6.5321   10.3118 O.2     1  LIG1       -0.4536
      4 O           1.8518   10.8670    9.0661 O.3     1  LIG1       -0.1569
      5 C           2.8903    8.4295    9.2901 C.ar    1  LIG1        0.0804
      6 C           4.2767    8.5888    9.6950 C.ar    1  LIG1        0.0433
      7 C           5.2818    9.6054    9.5809 C.ar    1  LIG1       -0.0060
      8 C           5.0624   10.9100    9.0990 C.ar    1  LIG1       -0.0533
      9 H           4.1865   11.1723    8.8394 H       1  LIG1        0.0624
     10 C           6.0961   11.8062    8.9998 C.ar    1  LIG1       -0.0611
     11 H           5.9356   12.6738    8.6504 H       1  LIG1        0.0618
     12 C           7.3988   11.4470    9.4137 C.ar    1  LIG1       -0.0612
     13 H           8.1116   12.0722    9.3425 H       1  LIG1        0.0618
     14 C           7.6277   10.2064    9.9139 C.ar    1  LIG1       -0.0540
     15 H           8.5053    9.9765   10.1963 H       1  LIG1        0.0624
     16 C           6.5947    9.2456   10.0264 C.ar    1  LIG1       -0.0171
     17 C           6.8574    7.9516   10.5649 C.ar    1  LIG1       -0.0505
     18 H           7.7473    7.7328   10.8168 H       1  LIG1        0.0625
     19 C           5.8849    7.0218   10.7309 C.ar    1  LIG1       -0.0181
     20 H           6.0584    6.1741   11.1247 H       1  LIG1        0.0655
     21 C           4.6036    7.3890   10.2838 C.ar    1  LIG1        0.1374
     22 C           2.4999    7.1863    9.6933 C.ar    1  LIG1        0.1510
     23 C           1.2751    6.3984    9.5855 C.ar    1  LIG1        0.0185
     24 C           0.8921    5.5711   10.6484 C.ar    1  LIG1       -0.0501
     25 H           1.3966    5.5749   11.4525 H       1  LIG1        0.0625
     26 C          -0.2138    4.7481   10.5396 C.ar    1  LIG1       -0.0479
     27 H          -0.4715    4.1915   11.2650 H       1  LIG1        0.0628
     28 C          -0.9415    4.7449    9.3596 C.ar    1  LIG1        0.0134
     29 C          -0.5923    5.5613    8.2970 C.ar    1  LIG1       -0.0479
     30 H          -1.1074    5.5551    7.4978 H       1  LIG1        0.0628
     31 C           0.5124    6.3848    8.4098 C.ar    1  LIG1       -0.0501
     32 H           0.7557    6.9472    7.6838 H       1  LIG1        0.0625
     33 C           2.7049    9.5731    6.8755 C.3     1  LIG1        0.0134
     34 H           3.6572    9.7701    7.0587 H       1  LIG1        0.0391
     35 H           2.6527    8.6912    6.4275 H       1  LIG1        0.0391
     36 C           2.1321   10.6390    5.9650 C.3     1  LIG1       -0.0545
     37 H           1.1974   10.4277    5.7613 H       1  LIG1        0.0238
     38 H           2.6491   10.6713    5.1332 H       1  LIG1        0.0238
     39 H           2.1799   11.5104    6.4123 H       1  LIG1        0.0238
@<TRIPOS>BOND
     1    38    36    1
     2    37    36    1
     3    36    39    1
     4    36    33    1
     5    35    33    1
     6    33    34    1
     7    33     2    1
     8    30    29    1
     9    32    31    1
    10    29    31   ar
    11    29    28   ar
    12    31    23   ar
    13     2     4    1
    14     2     5    1
    15    11    10    1
    16     9     8    1
    17    10     8   ar
    18    10    12   ar
    19     8     7   ar
    20     1    28    1
    21     5    22   ar
    22     5     6   ar
    23    13    12    1
    24    28    26   ar
    25    12    14   ar
    26     7     6   ar
    27     7    16   ar
    28    23    22    1
    29    23    24   ar
    30    22     3   ar
    31     6    21   ar
    32    14    16   ar
    33    14    15    1
    34    16    17   ar
    35    21     3   ar
    36    21    19   ar
    37    26    24   ar
    38    26    27    1
    39    17    19   ar
    40    17    18    1
    41    24    25    1
    42    19    20    1
