@<TRIPOS>MOLECULE
14-Hydroxy-8,14-secogammacera-7-ene-3,21-dione
 81 84 0 0 0
SMALL
GASTEIGER

@<TRIPOS>ATOM
      1 O          10.1799    6.8336   16.4668 O.2     1  LIG1       -0.2968
      2 O          11.0233   14.1372   15.3493 O.3     1  LIG1       -0.3886
      3 H          11.3612   14.8153   15.7078 H       1  LIG1        0.2102
      4 O          11.6061    9.3378    6.7232 O.2     1  LIG1       -0.2968
      5 C          11.8855   10.4431   15.2361 C.3     1  LIG1       -0.0226
      6 C          11.2168    9.4238   14.2989 C.3     1  LIG1       -0.0403
      7 H          10.2524    9.6351   14.2291 H       1  LIG1        0.0275
      8 H          11.6108    9.5120   13.3951 H       1  LIG1        0.0275
      9 C          11.3756    7.9719   14.7722 C.3     1  LIG1        0.0069
     10 H          10.8633    7.3765   14.1696 H       1  LIG1        0.0342
     11 H          12.3298    7.7146   14.7134 H       1  LIG1        0.0342
     12 C          10.8972    7.7692   16.1865 C.2     1  LIG1        0.1392
     13 C          11.3902    8.7523   17.2471 C.3     1  LIG1        0.0267
     14 C          11.3324   10.2030   16.6744 C.3     1  LIG1       -0.0234
     15 H          10.3558   10.4063   16.6045 H       1  LIG1        0.0315
     16 C          12.8062    8.2968   17.6660 C.3     1  LIG1       -0.0528
     17 H          12.7576    7.4002   18.0587 H       1  LIG1        0.0239
     18 H          13.1688    8.9233   18.3260 H       1  LIG1        0.0239
     19 H          13.3898    8.2782   16.8779 H       1  LIG1        0.0239
     20 C          10.4782    8.6440   18.4829 C.3     1  LIG1       -0.0528
     21 H          10.3677    7.7013   18.7262 H       1  LIG1        0.0239
     22 H           9.6024    9.0330   18.2771 H       1  LIG1        0.0239
     23 H          10.8835    9.1294   19.2319 H       1  LIG1        0.0239
     24 C          13.4205   10.2808   15.1166 C.3     1  LIG1       -0.0589
     25 H          13.6406    9.3326   15.0005 H       1  LIG1        0.0235
     26 H          13.8485   10.6184   15.9308 H       1  LIG1        0.0235
     27 H          13.7440   10.7889   14.3437 H       1  LIG1        0.0235
     28 C          11.8748   11.2609   17.6398 C.3     1  LIG1       -0.0462
     29 H          11.5525   11.0707   18.5567 H       1  LIG1        0.0269
     30 H          12.8645   11.2279   17.6478 H       1  LIG1        0.0269
     31 C          11.4146   12.6492   17.2161 C.3     1  LIG1       -0.0237
     32 H          11.7950   13.3174   17.8403 H       1  LIG1        0.0293
     33 H          10.4283   12.6960   17.2888 H       1  LIG1        0.0293
     34 C          11.8231   13.0174   15.7865 C.3     1  LIG1        0.0666
     35 C          11.4134   11.8774   14.8197 C.3     1  LIG1       -0.0067
     36 H          10.4164   11.8389   14.8921 H       1  LIG1        0.0334
     37 C          13.3000   13.4147   15.7371 C.3     1  LIG1       -0.0358
     38 H          13.5811   13.5102   14.8035 H       1  LIG1        0.0257
     39 H          13.8390   12.7213   16.1722 H       1  LIG1        0.0257
     40 H          13.4243   14.2666   16.2043 H       1  LIG1        0.0257
     41 C          11.6739   12.2520   13.3351 C.3     1  LIG1       -0.0465
     42 H          11.9863   13.1899   13.2866 H       1  LIG1        0.0269
     43 H          12.3927   11.6743   12.9765 H       1  LIG1        0.0269
     44 C          10.4220   12.0950   12.4648 C.3     1  LIG1       -0.0457
     45 H           9.6879   12.6219   12.8696 H       1  LIG1        0.0271
     46 H          10.1478   11.1433   12.4740 H       1  LIG1        0.0271
     47 C          10.5990   12.5457   10.9854 C.3     1  LIG1       -0.0145
     48 H          11.5834   12.6352   10.8334 H       1  LIG1        0.0351
     49 C           9.9945   13.9240   10.7281 C.2     1  LIG1       -0.0729
     50 C           9.3314   14.2035    9.6112 C.2     1  LIG1       -0.0844
     51 H           8.9261   15.0600    9.5395 H       1  LIG1        0.0572
     52 C           9.1799   13.2580    8.4567 C.3     1  LIG1       -0.0303
     53 H           9.3243   13.7475    7.6087 H       1  LIG1        0.0311
     54 H           8.2594   12.8933    8.4474 H       1  LIG1        0.0311
     55 C          10.1817   12.1066    8.5575 C.3     1  LIG1       -0.0198
     56 H          11.0819   12.5403    8.5222 H       1  LIG1        0.0318
     57 C          10.0928   11.4755    9.9743 C.3     1  LIG1       -0.0212
     58 C          10.2488   14.9965   11.7556 C.3     1  LIG1       -0.0435
     59 H           9.7759   15.8148   11.4979 H       1  LIG1        0.0274
     60 H          11.2115   15.1771   11.8064 H       1  LIG1        0.0274
     61 H           9.9268   14.6951   12.6298 H       1  LIG1        0.0274
     62 C           8.6566   11.0403   10.3241 C.3     1  LIG1       -0.0587
     63 H           8.6588   10.5679   11.1832 H       1  LIG1        0.0235
     64 H           8.3165   10.4448    9.6236 H       1  LIG1        0.0235
     65 H           8.0824   11.8315   10.3889 H       1  LIG1        0.0235
     66 C          11.0433   10.2728   10.0446 C.3     1  LIG1       -0.0401
     67 H          11.9756   10.5931    9.9612 H       1  LIG1        0.0275
     68 H          10.9500    9.8398   10.9296 H       1  LIG1        0.0275
     69 C          10.7740    9.2380    8.9530 C.3     1  LIG1        0.0069
     70 H          11.4111    8.4858    9.0462 H       1  LIG1        0.0342
     71 H           9.8579    8.8788    9.0568 H       1  LIG1        0.0342
     72 C          10.9209    9.8556    7.5898 C.2     1  LIG1        0.1392
     73 C          10.1427   11.1479    7.3186 C.3     1  LIG1        0.0270
     74 C           8.7248   10.6904    6.8935 C.3     1  LIG1       -0.0528
     75 H           8.7835   10.1720    6.0644 H       1  LIG1        0.0239
     76 H           8.1584   11.4770    6.7487 H       1  LIG1        0.0239
     77 H           8.3355   10.1334    7.5996 H       1  LIG1        0.0239
     78 C          10.7694   11.8728    6.1191 C.3     1  LIG1       -0.0528
     79 H          10.7943   11.2679    5.3480 H       1  LIG1        0.0239
     80 H          11.6821   12.1503    6.3454 H       1  LIG1        0.0239
     81 H          10.2334   12.6619    5.8979 H       1  LIG1        0.0239
@<TRIPOS>BOND
     1    79    78    1
     2    81    78    1
     3    75    74    1
     4    78    80    1
     5    78    73    1
     6     4    72    2
     7    76    74    1
     8    74    73    1
     9    74    77    1
    10    73    72    1
    11    73    55    1
    12    72    69    1
    13    53    52    1
    14    54    52    1
    15    52    55    1
    16    52    50    1
    17    56    55    1
    18    55    57    1
    19    69    70    1
    20    69    71    1
    21    69    66    1
    22    51    50    1
    23    50    49    2
    24    64    62    1
    25    67    66    1
    26    57    66    1
    27    57    62    1
    28    57    47    1
    29    66    68    1
    30    62    65    1
    31    62    63    1
    32    49    47    1
    33    49    58    1
    34    48    47    1
    35    47    44    1
    36    59    58    1
    37    58    60    1
    38    58    61    1
    39    44    46    1
    40    44    45    1
    41    44    41    1
    42    43    41    1
    43    42    41    1
    44    41    35    1
    45     8     6    1
    46    10     9    1
    47     7     6    1
    48     6     9    1
    49     6     5    1
    50    27    24    1
    51    11     9    1
    52     9    12    1
    53    38    37    1
    54    35    36    1
    55    35     5    1
    56    35    34    1
    57    25    24    1
    58    24     5    1
    59    24    26    1
    60     5    14    1
    61     2     3    1
    62     2    34    1
    63    37    34    1
    64    37    39    1
    65    37    40    1
    66    34    31    1
    67    12     1    2
    68    12    13    1
    69    15    14    1
    70    14    13    1
    71    14    28    1
    72    19    16    1
    73    31    33    1
    74    31    28    1
    75    31    32    1
    76    13    16    1
    77    13    20    1
    78    28    30    1
    79    28    29    1
    80    16    17    1
    81    16    18    1
    82    22    20    1
    83    20    21    1
    84    20    23    1
