@<TRIPOS>MOLECULE
(<i>E</i>,<i>E</i>)-3,3'-Dimethyl-1,1'-diphenyl-4,4'-{(ethane-1,2- diyldiimino)bis[(2-furyl)methylidyne]}di-1<i>H</i>-pyrazol-5(4<i>H</i>)-one
 35 37 0 0 0
SMALL
GASTEIGER

@<TRIPOS>ATOM
      1 C           8.3865    9.9167    1.9996 C.ar    1  LIG1        0.0600
      2 C           9.1312    9.6487    3.1327 C.ar    1  LIG1       -0.0384
      3 H           9.5009    8.8048    3.2601 H       1  LIG1        0.0637
      4 C           9.3234   10.6405    4.0752 C.ar    1  LIG1       -0.0599
      5 H           9.8175   10.4595    4.8415 H       1  LIG1        0.0618
      6 C           8.7896   11.8902    3.8862 C.ar    1  LIG1       -0.0616
      7 H           8.9286   12.5570    4.5192 H       1  LIG1        0.0618
      8 C           8.0515   12.1566    2.7616 C.ar    1  LIG1       -0.0599
      9 H           7.6927   13.0051    2.6357 H       1  LIG1        0.0618
     10 C           7.8364   11.1772    1.8149 C.ar    1  LIG1       -0.0384
     11 H           7.3264   11.3597    1.0593 H       1  LIG1        0.0637
     12 C           8.8724    7.7438    0.8065 C.2     1  LIG1        0.2635
     13 C           8.2215    7.1347   -0.3218 C.3     1  LIG1        0.2038
     14 C           7.2198    8.0764   -0.7321 C.2     1  LIG1        0.0617
     15 C           6.2954    8.0680   -1.9129 C.3     1  LIG1       -0.0231
     16 H           5.5990    7.4227   -1.7694 H       1  LIG1        0.0290
     17 H           6.7881    7.8370   -2.7028 H       1  LIG1        0.0290
     18 H           5.9075    8.9396   -2.0212 H       1  LIG1        0.0290
     19 C           8.6339    5.8920   -0.8124 C.2     1  LIG1        0.2426
     20 C           7.8261    5.1343   -1.7592 C.ar    1  LIG1        0.1949
     21 C           6.5223    4.9356   -1.8097 C.ar    1  LIG1       -0.0102
     22 H           5.8934    5.2644   -1.2087 H       1  LIG1        0.0657
     23 C           6.2570    4.1387   -2.9325 C.ar    1  LIG1       -0.0231
     24 H           5.4223    3.8407   -3.2148 H       1  LIG1        0.0649
     25 C           7.4130    3.8915   -3.5086 C.ar    1  LIG1        0.0928
     26 H           7.5285    3.3895   -4.2825 H       1  LIG1        0.1029
     27 C          10.2728    4.0224   -0.5681 C.3     1  LIG1        0.2017
     28 H          10.7424    3.9678   -1.4152 H       1  LIG1        0.1091
     29 H           9.5337    3.3941   -0.5876 H       1  LIG1        0.1091
     30 H          10.1917    5.9135    0.2485 H       1  LIG1        0.4456
     31 N           8.1748    8.9149    1.0257 N.am    1  LIG1       -0.1596
     32 N           7.1966    9.1259    0.0478 N.2     1  LIG1       -0.1802
     33 N           9.7718    5.3699   -0.3651 N.2     1  LIG1       -0.2347
     34 O           9.8582    7.3497    1.4582 O.2     1  LIG1       -0.2718
     35 O           8.4267    4.4906   -2.7931 O.2     1  LIG1       -0.4573
@<TRIPOS>BOND
     1    26    25    1
     2    25    23   ar
     3    25    35   ar
     4    24    23    1
     5    23    21   ar
     6    35    20   ar
     7    17    15    1
     8    18    15    1
     9    15    16    1
    10    15    14    1
    11    21    20   ar
    12    21    22    1
    13    20    19    1
    14    28    27    1
    15    19    33    2
    16    19    13    1
    17    14    13    1
    18    14    32    2
    19    29    27    1
    20    27    33    1
    21    33    30    1
    22    13    12    1
    23    32    31    1
    24    12    31   am
    25    12    34    2
    26    31     1    1
    27    11    10    1
    28    10     1   ar
    29    10     8   ar
    30     1     2   ar
    31     9     8    1
    32     8     6   ar
    33     2     3    1
    34     2     4   ar
    35     6     4   ar
    36     6     7    1
    37     4     5    1
