@<TRIPOS>MOLECULE
2,4,6-triamino-1,3,5-triazin-1-ium iodide monohydrate
 20 18 0 0 0
SMALL
GASTEIGER

@<TRIPOS>ATOM
      1 N          -0.1420    1.4104    4.2028 N.2     1  LIG1       -0.0093
      2 N           1.7977    0.8191    3.0302 N.pl3   1  LIG1       -0.1798
      3 H           2.3201    0.9476    2.3593 H       1  LIG1        0.2499
      4 N           1.3220   -0.3270    5.0267 N.2     1  LIG1       -0.0452
      5 N           0.4241    2.4839    2.2500 N.pl3   1  LIG1       -0.2512
      6 H          -0.2731    2.9822    2.3178 H       1  LIG1        0.2412
      7 H           0.9588    2.5799    1.5834 H       1  LIG1        0.2412
      8 N          -0.5588    0.3010    6.1534 N.pl3   1  LIG1       -0.2468
      9 H          -0.3639   -0.2900    6.7478 H       1  LIG1        0.2415
     10 H          -1.2647    0.7835    6.2430 H       1  LIG1        0.2415
     11 O           3.5673    0.9889    0.9660 O.3     2  HOH2       -0.4105
     12 H           4.0389    0.4421    0.5573 H       0  HOH0        0.2052
     13 H           3.6865    1.7779    0.7649 H       0  HOH0        0.2052
     14 C           0.6743    1.5667    3.1734 C.cat   1  LIG1        0.3771
     15 C           0.2268    0.4663    5.1043 C.cat   1  LIG1        0.4212
     16 C           2.0915   -0.1387    3.9580 C.3     1  LIG1        0.3760
     17 I           3.5405    4.6866    1.4657 I       3  LIG3        0.0000
     18 N           3.1814   -0.8662    3.7897 N.3     1  LIG1       -0.2573
     19 H           3.3944   -1.4626    4.3711 H       1  LIG1        0.1250
     20 H           3.6783   -0.7429    3.0980 H       1  LIG1        0.1250
@<TRIPOS>BOND
     1    12    11    1
     2    13    11    1
     3     7     5    1
     4     5     6    1
     5     5    14    1
     6     3     2    1
     7     2    14    1
     8     2    16    1
     9    20    18    1
    10    14     1    2
    11    18    16    1
    12    18    19    1
    13    16     4    1
    14     1    15    1
    15     4    15    2
    16    15     8    1
    17     8    10    1
    18     8     9    1
