@<TRIPOS>MOLECULE
3-Methyl-<i>N</i>-(2-methylphenyl)benzamide
 32 33 0 0 0
SMALL
GASTEIGER

@<TRIPOS>ATOM
      1 C           1.9678    2.9098    9.7332 C.ar    1  LIG1        0.0373
      2 C           2.5748    1.9450    8.9356 C.ar    1  LIG1       -0.0467
      3 H           3.3792    1.5687    9.2126 H       1  LIG1        0.0628
      4 C           2.0104    1.5301    7.7404 C.ar    1  LIG1       -0.0497
      5 C           0.8033    2.0870    7.3649 C.ar    1  LIG1       -0.0588
      6 H           0.4001    1.8113    6.5734 H       1  LIG1        0.0620
      7 C           0.1833    3.0469    8.1442 C.ar    1  LIG1       -0.0608
      8 H          -0.6306    3.4078    7.8747 H       1  LIG1        0.0618
      9 C           0.7662    3.4701    9.3171 C.ar    1  LIG1       -0.0496
     10 H           0.3567    4.1295    9.8298 H       1  LIG1        0.0625
     11 C           2.5875    3.3974   11.0030 C.2     1  LIG1        0.2483
     12 C           3.9003    2.6934   12.9685 C.ar    1  LIG1        0.0366
     13 C           5.0863    1.9890   13.2177 C.ar    1  LIG1       -0.0292
     14 C           5.7301    2.2152   14.4170 C.ar    1  LIG1       -0.0571
     15 H           6.5120    1.7474   14.6034 H       1  LIG1        0.0621
     16 C           5.2531    3.1093   15.3456 C.ar    1  LIG1       -0.0614
     17 H           5.7131    3.2464   16.1421 H       1  LIG1        0.0618
     18 C           4.0927    3.7978   15.0898 C.ar    1  LIG1       -0.0600
     19 H           3.7666    4.4057   15.7148 H       1  LIG1        0.0618
     20 C           3.4113    3.5914   13.9122 C.ar    1  LIG1       -0.0402
     21 H           2.6213    4.0538   13.7467 H       1  LIG1        0.0636
     22 C           2.6992    0.4960    6.8859 C.3     1  LIG1       -0.0397
     23 H           3.6418    0.6772    6.8625 H       1  LIG1        0.0278
     24 H           2.3435    0.5297    5.9950 H       1  LIG1        0.0278
     25 H           2.5496   -0.3767    7.2575 H       1  LIG1        0.0278
     26 C           5.6509    1.0183   12.2181 C.3     1  LIG1       -0.0380
     27 H           5.6894    1.4346   11.3534 H       1  LIG1        0.0278
     28 H           5.0890    0.2411   12.1735 H       1  LIG1        0.0278
     29 H           6.5342    0.7589   12.4885 H       1  LIG1        0.0278
     30 N           3.2113    2.4593   11.7498 N.am    1  LIG1       -0.2813
     31 H           3.1895    1.6494   11.4613 H       1  LIG1        0.1551
     32 O           2.5306    4.5795   11.3232 O.2     1  LIG1       -0.2699
@<TRIPOS>BOND
     1    24    22    1
     2     6     5    1
     3    23    22    1
     4    22    25    1
     5    22     4    1
     6     5     4   ar
     7     5     7   ar
     8     4     2   ar
     9     8     7    1
    10     7     9   ar
    11     2     3    1
    12     2     1   ar
    13     9     1   ar
    14     9    10    1
    15     1    11    1
    16    11    32    2
    17    11    30   am
    18    27    26    1
    19    31    30    1
    20    30    12    1
    21    28    26    1
    22    26    29    1
    23    26    13    1
    24    12    13   ar
    25    12    20   ar
    26    13    14   ar
    27    21    20    1
    28    20    18   ar
    29    14    15    1
    30    14    16   ar
    31    18    16   ar
    32    18    19    1
    33    16    17    1
