@<TRIPOS>MOLECULE
Guanidinium 2-phenylacetate
 27 26 0 0 0
SMALL
GASTEIGER

@<TRIPOS>ATOM
      1 O          10.7953    7.3011    1.5138 O.co2   1  LIG1       -0.2460
      2 O          10.6071    7.4574   -0.6806 O.co2   1  LIG1       -0.2460
      3 C          10.4010    9.9990    1.9717 C.ar    1  LIG1       -0.0366
      4 C          11.5905   10.4062    2.5228 C.ar    1  LIG1       -0.0581
      5 C          11.6353   10.9000    3.8034 C.ar    1  LIG1       -0.0615
      6 C          10.4790   10.9846    4.5542 C.ar    1  LIG1       -0.0617
      7 C           9.2931   10.5649    4.0009 C.ar    1  LIG1       -0.0615
      8 C           9.2581   10.0839    2.7328 C.ar    1  LIG1       -0.0581
      9 C          10.3532    9.4471    0.5799 C.3     1  LIG1        0.0743
     10 C          10.6078    7.9547    0.4686 C.2     1  LIG1        0.3603
     11 N          13.0674    6.8418    3.2560 N.pl3   2  LIG2       -0.2920
     12 N          12.9995    6.7987    5.5383 N.pl3   2  LIG2       -0.2920
     13 N          11.1371    7.4087    4.3547 N.pl3   2  LIG2       -0.2920
     14 C          12.4043    7.0217    4.3846 C.cat   2  LIG2        0.3387
     15 H          12.3737   10.3476    2.0243 H       1  LIG1        0.0620
     16 H          12.4461   11.1779    4.1655 H       1  LIG1        0.0618
     17 H          10.5025   11.3194    5.4218 H       1  LIG1        0.0618
     18 H           8.5085   10.6103    4.4986 H       1  LIG1        0.0618
     19 H           8.4478    9.8070    2.3715 H       1  LIG1        0.0620
     20 H          11.0129    9.9131    0.0415 H       1  LIG1        0.0428
     21 H           9.4802    9.6386    0.2030 H       1  LIG1        0.0428
     22 H          13.8911    6.6087    3.2861 H       2  LIG2        0.2545
     23 H          12.6381    6.9742    2.5157 H       2  LIG2        0.2545
     24 H          12.5488    6.9119    6.2306 H       2  LIG2        0.2545
     25 H          13.8120    6.5211    5.5644 H       2  LIG2        0.2545
     26 H          10.8326    7.6613    3.5503 H       2  LIG2        0.2545
     27 H          10.7956    7.6580    5.1020 H       2  LIG2        0.2545
@<TRIPOS>BOND
     1     2    10   ar
     2    20     9    1
     3    21     9    1
     4    10     9    1
     5    10     1   ar
     6     9     3    1
     7     3     4   ar
     8     3     8   ar
     9    15     4    1
    10    19     8    1
    11    23    11    1
    12     4     5   ar
    13     8     7   ar
    14    11    22    1
    15    11    14    2
    16    26    13    1
    17     5    16    1
    18     5     6   ar
    19     7    18    1
    20     7     6   ar
    21    13    14    1
    22    13    27    1
    23    14    12    1
    24     6    17    1
    25    12    25    1
    26    12    24    1
