@<TRIPOS>MOLECULE
(<i>E</i>)-4-Bromo-2-[(2-hydroxyphenyl)iminiomethyl]phenolate
 27 28 0 0 0
SMALL
GASTEIGER

@<TRIPOS>ATOM
      1 BR          0.0107    8.3865    5.4594 Br      1  LIG1       -0.0503
      2 O           2.4034   12.5558    1.8063 O.3     1  LIG1       -0.2871
      3 O           5.2323   13.2732    6.3478 O.3     1  LIG1       -0.5014
      4 H           5.8726   13.1145    6.8347 H       1  LIG1        0.2924
      5 N           3.9635   13.2514    3.7835 N.2     1  LIG1       -0.2075
      6 H           3.7129   13.2111    2.9267 H       1  LIG1        0.4530
      7 C           1.9102   11.6328    2.5836 C.ar    1  LIG1        0.1918
      8 C           0.8917   10.7368    2.1458 C.ar    1  LIG1       -0.0131
      9 H           0.6137   10.9007    1.2890 H       1  LIG1        0.0656
     10 C           0.3622    9.7773    2.9771 C.ar    1  LIG1       -0.0441
     11 H          -0.3038    9.1887    2.7399 H       1  LIG1        0.0630
     12 C           0.8130    9.6693    4.3084 C.ar    1  LIG1        0.0189
     13 C           1.7943   10.5071    4.7854 C.ar    1  LIG1       -0.0312
     14 H           2.0733   10.4821    5.6354 H       1  LIG1        0.0638
     15 C           2.3614   11.4864    3.9423 C.ar    1  LIG1        0.0860
     16 C           3.3568   12.3388    4.5002 C.2     1  LIG1        0.1810
     17 H           3.6371   12.2528    5.4050 H       1  LIG1        0.1383
     18 C           4.9562   14.1866    4.1690 C.ar    1  LIG1        0.2478
     19 C           5.5825   14.1943    5.4312 C.ar    1  LIG1        0.1887
     20 C           6.5490   15.1753    5.6896 C.ar    1  LIG1       -0.0136
     21 H           6.9138   15.2393    6.5259 H       1  LIG1        0.0656
     22 C           6.9184   16.0938    4.7132 C.ar    1  LIG1       -0.0579
     23 H           7.5905   16.7544    4.8944 H       1  LIG1        0.0619
     24 C           6.3162   16.0592    3.4547 C.ar    1  LIG1       -0.0553
     25 H           6.6123   16.6426    2.8208 H       1  LIG1        0.0620
     26 C           5.3371   15.1119    3.1944 C.ar    1  LIG1        0.0134
     27 H           4.8417   15.0670    2.2915 H       1  LIG1        0.0684
@<TRIPOS>BOND
     1     9     8    1
     2     2     7    1
     3     8     7   ar
     4     8    10   ar
     5    27    26    1
     6     7    15   ar
     7    11    10    1
     8    25    24    1
     9     6     5    1
    10    10    12   ar
    11    26    24   ar
    12    26    18   ar
    13    24    22   ar
    14     5    18    1
    15     5    16    2
    16    15    16    1
    17    15    13   ar
    18    18    19   ar
    19    12    13   ar
    20    12     1    1
    21    16    17    1
    22    22    23    1
    23    22    20   ar
    24    13    14    1
    25    19    20   ar
    26    19     3    1
    27    20    21    1
    28     3     4    1
