@<TRIPOS>MOLECULE
2,3-Dimethyl-<i>N</i>-[(<i>E</i>)-4-nitrobenzylidene]aniline
 33 34 0 0 0
SMALL
GASTEIGER

@<TRIPOS>ATOM
      1 O           1.0140   -2.2780   10.7909 O.2     1  LIG1       -0.1261
      2 O           0.7794   -0.7361   12.2734 O.2     1  LIG1       -0.1261
      3 N           0.8118    4.0281    7.2390 N.2     1  LIG1       -0.2547
      4 N           0.9018   -1.1130   11.1157 N.pl3   1  LIG1        0.0564
      5 C           0.8859    4.9827    6.1916 C.ar    1  LIG1        0.0670
      6 C           1.0860    6.3154    6.5567 C.ar    1  LIG1       -0.0222
      7 C           1.1378    7.2977    5.5586 C.ar    1  LIG1       -0.0455
      8 C           0.9737    6.9209    4.2419 C.ar    1  LIG1       -0.0585
      9 C           0.7571    5.6120    3.8848 C.ar    1  LIG1       -0.0595
     10 C           0.6995    4.6442    4.8565 C.ar    1  LIG1       -0.0360
     11 C           1.2724    6.6730    8.0139 C.3     1  LIG1       -0.0374
     12 C           1.3516    8.7443    5.9030 C.3     1  LIG1       -0.0394
     13 C           1.1321    2.8255    7.0329 C.2     1  LIG1        0.0354
     14 C           1.0320    1.8107    8.0896 C.ar    1  LIG1       -0.0068
     15 C           1.3185    0.4905    7.8029 C.ar    1  LIG1       -0.0510
     16 C           1.2616   -0.4686    8.7835 C.ar    1  LIG1       -0.0309
     17 C           0.9262   -0.0885   10.0537 C.ar    1  LIG1        0.1262
     18 C           0.6319    1.2050   10.3768 C.ar    1  LIG1       -0.0309
     19 C           0.6859    2.1585    9.3868 C.ar    1  LIG1       -0.0510
     20 H           1.0104    7.5706    3.5777 H       1  LIG1        0.0620
     21 H           0.6497    5.3839    2.9899 H       1  LIG1        0.0618
     22 H           0.5360    3.7595    4.6207 H       1  LIG1        0.0639
     23 H           0.6558    7.3681    8.2542 H       1  LIG1        0.0278
     24 H           2.1711    6.9785    8.1563 H       1  LIG1        0.0278
     25 H           1.1083    5.8978    8.5566 H       1  LIG1        0.0278
     26 H           1.3266    9.2717    5.1011 H       1  LIG1        0.0278
     27 H           2.2062    8.8495    6.3281 H       1  LIG1        0.0278
     28 H           0.6593    9.0371    6.5001 H       1  LIG1        0.0278
     29 H           1.4399    2.5755    6.1916 H       1  LIG1        0.0836
     30 H           1.5525    0.2484    6.9359 H       1  LIG1        0.0625
     31 H           1.4477   -1.3583    8.5879 H       1  LIG1        0.0640
     32 H           0.3989    1.4357   11.2470 H       1  LIG1        0.0640
     33 H           0.4895    3.0446    9.5894 H       1  LIG1        0.0625
@<TRIPOS>BOND
     1    21     9    1
     2    20     8    1
     3     9     8   ar
     4     9    10   ar
     5     8     7   ar
     6    22    10    1
     7    10     5   ar
     8    26    12    1
     9     7    12    1
    10     7     6   ar
    11    12    27    1
    12    12    28    1
    13     5     6   ar
    14     5     3    1
    15    29    13    1
    16     6    11    1
    17    30    15    1
    18    13     3    2
    19    13    14    1
    20    15    14   ar
    21    15    16   ar
    22    11    24    1
    23    11    23    1
    24    11    25    1
    25    14    19   ar
    26    31    16    1
    27    16    17   ar
    28    19    33    1
    29    19    18   ar
    30    17    18   ar
    31    17     4    1
    32    18    32    1
    33     1     4    2
    34     4     2    2
