@<TRIPOS>MOLECULE
3-Nitro-5-(4-pyridinio)benzoate
 26 27 0 0 0
SMALL
GASTEIGER

@<TRIPOS>ATOM
      1 N          -0.0548    2.6367    6.5205 N.pl3   1  LIG1        0.0565
      2 N           5.7102   -2.1062    5.7646 N.pl3   1  LIG1       -0.3269
      3 H           6.1842   -2.8216    5.7831 H       1  LIG1        0.1510
      4 O           4.9928    5.0046    4.2626 O.co2   1  LIG1       -0.2406
      5 O           3.2936    6.2219    5.0186 O.co2   1  LIG1       -0.2406
      6 O          -0.6771    3.6862    6.5234 O.2     1  LIG1       -0.1261
      7 O          -0.5336    1.5663    6.9042 O.2     1  LIG1       -0.1261
      8 C           3.8466    5.1509    4.8253 C.2     1  LIG1        0.3866
      9 C           3.2259    3.8604    5.2725 C.ar    1  LIG1        0.0656
     10 C           1.9136    3.8433    5.7032 C.ar    1  LIG1       -0.0174
     11 H           1.4203    4.6296    5.7382 H       1  LIG1        0.0648
     12 C           1.3461    2.6501    6.0791 C.ar    1  LIG1        0.1273
     13 C           2.0587    1.4617    6.0520 C.ar    1  LIG1       -0.0271
     14 H           1.6444    0.6646    6.2916 H       1  LIG1        0.0643
     15 C           3.3920    1.4691    5.6654 C.ar    1  LIG1       -0.0292
     16 C           3.9675    2.6790    5.2775 C.ar    1  LIG1       -0.0431
     17 H           4.8606    2.6991    5.0172 H       1  LIG1        0.0629
     18 C           4.4028   -2.1644    5.5806 C.2     1  LIG1       -0.0095
     19 H           3.9981   -2.9961    5.4807 H       1  LIG1        0.0778
     20 C           3.6177   -1.0351    5.5321 C.2     1  LIG1       -0.0546
     21 H           2.7004   -1.1138    5.4058 H       1  LIG1        0.0597
     22 C           4.1916    0.2187    5.6697 C.3     1  LIG1        0.0513
     23 C           5.5797    0.2551    5.8730 C.2     1  LIG1       -0.0546
     24 H           6.0198    1.0692    5.9749 H       1  LIG1        0.0597
     25 C           6.2713   -0.9192    5.9193 C.2     1  LIG1       -0.0095
     26 H           7.1886   -0.8836    6.0669 H       1  LIG1        0.0778
@<TRIPOS>BOND
     1     4     8   ar
     2     8     5   ar
     3     8     9    1
     4    17    16    1
     5     9    16   ar
     6     9    10   ar
     7    16    15   ar
     8    21    20    1
     9    19    18    1
    10    20    18    2
    11    20    22    1
    12    18     2    1
    13    15    22    1
    14    15    13   ar
    15    22    23    1
    16    10    11    1
    17    10    12   ar
    18     2     3    1
    19     2    25    1
    20    23    25    2
    21    23    24    1
    22    25    26    1
    23    13    12   ar
    24    13    14    1
    25    12     1    1
    26     1     6    2
    27     1     7    2
