@<TRIPOS>MOLECULE
<i>tert</i>-Butyl <i>N</i>-[(11-<i>exo</i>-benzyloxycarbonyl-8- oxopentacyclo[5.4.0.0^2,6^.0^3,10^.0^5,9^]undecane-11-<i>endo</i>- yloxy)carbonylmethyl]carbamate
 63 68 0 0 0
SMALL
GASTEIGER

@<TRIPOS>ATOM
      1 O           3.6149   27.5541    8.7044 O.2     1  LIG1       -0.2968
      2 O           4.8343   24.8169    8.1556 O.3     1  LIG1       -0.4448
      3 O           4.9509   24.1568    6.0133 O.2     1  LIG1       -0.2490
      4 O           8.9599   24.8139    5.9980 O.2     1  LIG1       -0.2265
      5 O           8.5222   25.6745    3.9355 O.3     1  LIG1       -0.4447
      6 O           3.2717   21.6917    7.7236 O.2     1  LIG1       -0.2463
      7 O           5.3143   22.2252    8.4523 O.3     1  LIG1       -0.4571
      8 N           7.0611   25.9386    5.5473 N.am    1  LIG1       -0.2706
      9 H           6.5721   26.4272    4.8907 H       1  LIG1        0.1526
     10 C           1.1916   24.3058   11.0242 C.3     1  LIG1       -0.0458
     11 H           1.6127   24.2543   11.9186 H       1  LIG1        0.0271
     12 H           0.2321   24.0670   11.0839 H       1  LIG1        0.0271
     13 C           1.4210   25.6404   10.3471 C.3     1  LIG1       -0.0271
     14 H           1.0259   26.4299   10.8148 H       1  LIG1        0.0311
     15 C           2.9686   25.6897   10.1422 C.3     1  LIG1        0.0282
     16 H           3.4666   26.0912   10.9110 H       1  LIG1        0.0384
     17 C           3.0345   26.5082    8.8826 C.2     1  LIG1        0.1408
     18 C           2.0519   25.8596    7.9436 C.3     1  LIG1        0.0284
     19 H           1.7714   26.3941    7.1454 H       1  LIG1        0.0384
     20 C           0.9251   25.4107    8.9218 C.3     1  LIG1       -0.0241
     21 H          -0.0081   25.7001    8.7098 H       1  LIG1        0.0313
     22 C           1.9318   23.4923    9.9837 C.3     1  LIG1       -0.0296
     23 H           1.9527   22.5083   10.1529 H       1  LIG1        0.0308
     24 C           3.3148   24.1689    9.8768 C.3     1  LIG1        0.0228
     25 H           3.9852   23.7999   10.5200 H       1  LIG1        0.0355
     26 C           3.7031   23.9536    8.4113 C.3     1  LIG1        0.2162
     27 C           2.4149   24.3518    7.6960 C.3     1  LIG1        0.0230
     28 H           2.3268   24.0340    6.7517 H       1  LIG1        0.0355
     29 C           1.2900   23.9095    8.6590 C.3     1  LIG1       -0.0264
     30 H           0.5723   23.3207    8.2893 H       1  LIG1        0.0311
     31 C           5.3537   24.8224    6.9129 C.2     1  LIG1        0.3256
     32 C           6.5036   25.7921    6.8755 C.3     1  LIG1        0.1121
     33 H           6.1925   26.6751    7.1953 H       1  LIG1        0.0578
     34 H           7.2119   25.4798    7.4911 H       1  LIG1        0.0578
     35 C           8.2528   25.4151    5.2292 C.2     1  LIG1        0.4012
     36 C           9.8171   25.2545    3.3638 C.3     1  LIG1        0.1068
     37 C          10.9527   25.9075    4.1032 C.3     1  LIG1       -0.0253
     38 H          10.8429   26.8816    4.0756 H       1  LIG1        0.0268
     39 H          11.8015   25.6616    3.6801 H       1  LIG1        0.0268
     40 H          10.9524   25.6038    5.0350 H       1  LIG1        0.0268
     41 C           9.7462   25.7748    1.9536 C.3     1  LIG1       -0.0253
     42 H           9.6879   26.7522    1.9688 H       1  LIG1        0.0268
     43 H           8.9542   25.4055    1.5091 H       1  LIG1        0.0268
     44 H          10.5508   25.5019    1.4645 H       1  LIG1        0.0268
     45 C           9.9033   23.7506    3.3647 C.3     1  LIG1       -0.0253
     46 H           9.1401   23.3785    2.8756 H       1  LIG1        0.0268
     47 H           9.8900   23.4226    4.2885 H       1  LIG1        0.0268
     48 H          10.7370   23.4722    2.9309 H       1  LIG1        0.0268
     49 C           4.0601   22.4915    8.1396 C.2     1  LIG1        0.3525
     50 C           5.7134   20.8333    8.2287 C.3     1  LIG1        0.1176
     51 H           5.2578   20.4786    7.4243 H       1  LIG1        0.0749
     52 H           5.4483   20.2803    9.0055 H       1  LIG1        0.0749
     53 C           7.1934   20.7719    8.0434 C.ar    1  LIG1       -0.0103
     54 C           7.9192   19.8135    8.6866 C.ar    1  LIG1       -0.0554
     55 H           7.4970   19.2586    9.3307 H       1  LIG1        0.0621
     56 C           9.2519   19.6455    8.4140 C.ar    1  LIG1       -0.0614
     57 H           9.7364   18.9529    8.8470 H       1  LIG1        0.0618
     58 C           9.8833   20.4494    7.5410 C.ar    1  LIG1       -0.0617
     59 H          10.8158   20.3492    7.3922 H       1  LIG1        0.0618
     60 C           9.1874   21.4086    6.8711 C.ar    1  LIG1       -0.0614
     61 H           9.6307   21.9657    6.2430 H       1  LIG1        0.0618
     62 C           7.8219   21.5686    7.1089 C.ar    1  LIG1       -0.0554
     63 H           7.3279   22.2219    6.6297 H       1  LIG1        0.0621
@<TRIPOS>BOND
     1    44    41    1
     2    43    41    1
     3    41    42    1
     4    41    36    1
     5    46    45    1
     6    48    45    1
     7    36    45    1
     8    36     5    1
     9    36    37    1
    10    45    47    1
    11    39    37    1
    12     5    35    1
    13    38    37    1
    14    37    40    1
    15     9     8    1
    16    35     8   am
    17    35     4    2
    18     8    32    1
    19     3    31    2
    20    61    60    1
    21    63    62    1
    22    28    27    1
    23    60    62   ar
    24    60    58   ar
    25    32    31    1
    26    32    33    1
    27    32    34    1
    28    31     2    1
    29    62    53   ar
    30    19    18    1
    31    59    58    1
    32    51    50    1
    33    58    56   ar
    34    27    18    1
    35    27    26    1
    36    27    29    1
    37     6    49    2
    38    18    17    1
    39    18    20    1
    40    53    50    1
    41    53    54   ar
    42    49    26    1
    43    49     7    1
    44     2    26    1
    45    50     7    1
    46    50    52    1
    47    30    29    1
    48    26    24    1
    49    56    54   ar
    50    56    57    1
    51    29    20    1
    52    29    22    1
    53    54    55    1
    54     1    17    2
    55    21    20    1
    56    17    15    1
    57    20    13    1
    58    24    22    1
    59    24    15    1
    60    24    25    1
    61    22    23    1
    62    22    10    1
    63    15    13    1
    64    15    16    1
    65    13    14    1
    66    13    10    1
    67    10    12    1
    68    10    11    1
