@<TRIPOS>MOLECULE
Dimethyl 4,4'-(pyridine-2,6-diyl)dibenzoate
 23 23 0 0 0
SMALL
GASTEIGER

@<TRIPOS>ATOM
      1 O           7.0591    1.2749    5.5209 O.2     1  LIG1       -0.2450
      2 N          -0.0000    1.8318    3.5936 N.pl3   1  LIG1       -0.1291
      3 C           6.0731    1.8392    5.9143 C.2     1  LIG1        0.3389
      4 O           5.9973    2.4406    7.0979 O.3     1  LIG1       -0.4645
      5 C           4.7987    1.8850    5.1530 C.ar    1  LIG1        0.0590
      6 C           4.7517    1.2412    3.9228 C.ar    1  LIG1       -0.0472
      7 H           5.5182    0.8430    3.5817 H       1  LIG1        0.0626
      8 C           3.5774    1.1868    3.2016 C.ar    1  LIG1       -0.0520
      9 H           3.5599    0.7475    2.3823 H       1  LIG1        0.0624
     10 C           2.4134    1.7865    3.6920 C.ar    1  LIG1       -0.0008
     11 C           2.4683    2.4463    4.9187 C.ar    1  LIG1       -0.0520
     12 H           1.7011    2.8523    5.2560 H       1  LIG1        0.0624
     13 C           3.6494    2.5049    5.6428 C.ar    1  LIG1       -0.0472
     14 H           3.6765    2.9574    6.4548 H       1  LIG1        0.0626
     15 C           1.1530    1.7128    2.9149 C.2     1  LIG1        0.0759
     16 C           1.1849    1.5006    1.5273 C.2     1  LIG1       -0.0547
     17 H           1.9995    1.4262    1.0822 H       1  LIG1        0.0595
     18 C          -0.0000    1.4047    0.8332 C.3     1  LIG1       -0.0070
     19 H          -0.0000    1.2767   -0.0881 H       1  LIG1        0.0355
     20 C           7.2073    2.3913    7.8959 C.3     1  LIG1        0.0820
     21 H           7.5177    1.4846    7.9522 H       1  LIG1        0.0661
     22 H           7.0238    2.7213    8.7781 H       1  LIG1        0.0661
     23 H           7.8847    2.9360    7.4860 H       1  LIG1        0.0661
@<TRIPOS>BOND
     1    19    18    1
     2    18    16    1
     3    17    16    1
     4    16    15    2
     5     9     8    1
     6    15     2    1
     7    15    10    1
     8     8    10   ar
     9     8     6   ar
    10     7     6    1
    11    10    11   ar
    12     6     5   ar
    13    11    12    1
    14    11    13   ar
    15     5    13   ar
    16     5     3    1
    17     1     3    2
    18    13    14    1
    19     3     4    1
    20     4    20    1
    21    23    20    1
    22    20    21    1
    23    20    22    1
