@<TRIPOS>MOLECULE
(<i>E</i>)-1-(2-Hydroxy-4,6-dimethoxyphenyl)-3-phenylprop-2-en-1-one
 37 38 0 0 0
SMALL
GASTEIGER

@<TRIPOS>ATOM
      1 O           2.8251   11.9149    4.9896 O.2     1  LIG1       -0.2870
      2 O           1.6346   11.5409    2.8756 O.3     1  LIG1       -0.5058
      3 H           2.1854   11.7882    3.4753 H       1  LIG1        0.2922
      4 O          -1.9430    8.4222    2.7126 O.3     1  LIG1       -0.4949
      5 O           0.4942    8.9306    6.7020 O.3     1  LIG1       -0.4942
      6 C           3.6392   11.3907    9.1148 C.ar    1  LIG1       -0.0249
      7 C           2.8788   10.6020    9.9682 C.ar    1  LIG1       -0.0546
      8 H           2.1700   10.0790    9.6117 H       1  LIG1        0.0623
      9 C           3.1345   10.5651   11.3234 C.ar    1  LIG1       -0.0612
     10 H           2.5976   10.0286   11.8939 H       1  LIG1        0.0618
     11 C           4.1751   11.3095   11.8481 C.ar    1  LIG1       -0.0617
     12 H           4.3519   11.2923   12.7825 H       1  LIG1        0.0618
     13 C           4.9549   12.0774   11.0106 C.ar    1  LIG1       -0.0612
     14 H           5.6711   12.5868   11.3707 H       1  LIG1        0.0618
     15 C           4.7065   12.1155    9.6518 C.ar    1  LIG1       -0.0546
     16 H           5.2618   12.6335    9.0817 H       1  LIG1        0.0623
     17 C           3.3531   11.4781    7.6765 C.2     1  LIG1       -0.0510
     18 H           3.9705   11.9642    7.1422 H       1  LIG1        0.0625
     19 C           2.3135   10.9404    7.0531 C.2     1  LIG1       -0.0135
     20 H           1.6793   10.4506    7.5639 H       1  LIG1        0.0656
     21 C           2.1044   11.0720    5.6062 C.2     1  LIG1        0.1931
     22 C           1.0773   10.3276    4.8818 C.ar    1  LIG1        0.1047
     23 C           0.8627   10.6303    3.5161 C.ar    1  LIG1        0.1346
     24 C          -0.1416   10.0581    2.7559 C.ar    1  LIG1        0.0225
     25 H          -0.2911   10.3264    1.8560 H       1  LIG1        0.0691
     26 C          -0.9223    9.0774    3.3490 C.ar    1  LIG1        0.1271
     27 C          -0.7222    8.6849    4.6687 C.ar    1  LIG1        0.0227
     28 H          -1.2636    8.0032    5.0471 H       1  LIG1        0.0691
     29 C           0.2548    9.2817    5.4211 C.ar    1  LIG1        0.1379
     30 C          -0.3074    7.8801    7.2629 C.3     1  LIG1        0.0788
     31 H          -0.0571    7.7423    8.1999 H       1  LIG1        0.0660
     32 H          -0.1589    7.0520    6.7611 H       1  LIG1        0.0660
     33 H          -1.2541    8.1287    7.2099 H       1  LIG1        0.0660
     34 C          -2.1844    8.7525    1.3506 C.3     1  LIG1        0.0788
     35 H          -2.9339    8.2185    1.0126 H       1  LIG1        0.0660
     36 H          -1.3823    8.5606    0.8209 H       1  LIG1        0.0660
     37 H          -2.4034    9.7050    1.2787 H       1  LIG1        0.0660
@<TRIPOS>BOND
     1    36    34    1
     2    35    34    1
     3    37    34    1
     4    34     4    1
     5    25    24    1
     6     4    26    1
     7    24    26   ar
     8    24    23   ar
     9     2     3    1
    10     2    23    1
    11    26    27   ar
    12    23    22   ar
    13    27    28    1
    14    27    29   ar
    15    22    29   ar
    16    22    21    1
    17     1    21    2
    18    29     5    1
    19    21    19    1
    20     5    30    1
    21    32    30    1
    22    19    20    1
    23    19    17    2
    24    18    17    1
    25    33    30    1
    26    30    31    1
    27    17     6    1
    28    16    15    1
    29     6    15   ar
    30     6     7   ar
    31     8     7    1
    32    15    13   ar
    33     7     9   ar
    34    13    14    1
    35    13    11   ar
    36     9    11   ar
    37     9    10    1
    38    11    12    1
