@<TRIPOS>MOLECULE
bis(carbamimidoylazanium) (2R)-2-aminopentanedioate
 56 52 0 0 0
SMALL
GASTEIGER

@<TRIPOS>ATOM
      1 C           3.5259    4.8906   -1.2957 C.2     1  GLU1        0.4026
      2 CA          4.3859    5.9975   -0.6349 C.3     1  GLU1        0.0790
      3 HA          4.9469    6.4063   -1.3552 H       1  GLU1        0.0970
      4 CB          5.3374    5.4691    0.4312 C.3     1  GLU1        0.0111
      5 HB1         5.8754    6.2226    0.7835 H       1  GLU1        0.0331
      6 HB2         5.9597    4.8210    0.0156 H       1  GLU1        0.0331
      7 CG          4.6146    4.7895    1.5923 C.3     1  GLU1        0.0548
      8 HG1         4.0142    4.0893    1.2333 H       1  GLU1        0.0381
      9 HG2         4.0543    5.4582    2.0596 H       1  GLU1        0.0381
     10 CD          5.5778    4.1567    2.5963 C.2     1  GLU1        0.3562
     11 C           3.9332    6.3965    6.1009 C.2     1  GLU1        0.4026
     12 CA          3.0444    5.5321    5.1857 C.3     1  GLU1        0.0790
     13 HA          3.4177    5.6093    4.2617 H       1  GLU1        0.0970
     14 CB          1.5751    5.9431    5.1067 C.3     1  GLU1        0.0111
     15 HB1         1.5044    6.9228    5.2267 H       1  GLU1        0.0331
     16 HB2         1.0763    5.5093    5.8443 H       1  GLU1        0.0331
     17 CG          0.9364    5.5517    3.7690 C.3     1  GLU1        0.0548
     18 HG1         1.1629    4.6101    3.5661 H       1  GLU1        0.0381
     19 HG2        -0.0486    5.6159    3.8500 H       1  GLU1        0.0381
     20 CD          1.4004    6.4368    2.6138 C.2     1  GLU1        0.3562
     21 C           6.8787    8.0927    4.3827 C.cat   1  LIG1        0.3387
     22 C           5.6290    8.0112    9.4065 C.cat   2  LIG2        0.3387
     23 N           3.4904    7.0747   -0.1073 N.4     1  GLU1        0.2289
     24 H1          2.8368    6.7021    0.4049 H       1  GLU1        0.2002
     25 H2          3.1118    7.5219   -0.8030 H       1  GLU1        0.2002
     26 H3          3.9775    7.6545    0.3971 H       1  GLU1        0.2002
     27 N           3.2003    4.1042    5.5999 N.4     1  GLU1        0.2289
     28 H1          2.7065    3.9501    6.3487 H       1  GLU1        0.2002
     29 H2          4.0769    3.9327    5.7740 H       1  GLU1        0.2002
     30 H3          2.9117    3.5609    4.9291 H       1  GLU1        0.2002
     31 N           5.9775    7.5806    3.5456 N.pl3   1  LIG1       -0.2920
     32 H           5.7795    8.0035    2.8002 H       1  LIG1        0.2545
     33 H           5.5797    6.8195    3.7388 H       1  LIG1        0.2545
     34 N           7.4805    9.2335    4.1002 N.pl3   1  LIG1       -0.2920
     35 H           8.0786    9.5649    4.6540 H       1  LIG1        0.2545
     36 H           7.2827    9.6627    3.3573 H       1  LIG1        0.2545
     37 N           7.1729    7.4407    5.5018 N.pl3   1  LIG1       -0.2920
     38 H           7.7712    7.7687    6.0580 H       1  LIG1        0.2545
     39 H           6.7710    6.6803    5.6872 H       1  LIG1        0.2545
     40 N           6.0528    6.7858    9.1606 N.pl3   2  LIG2       -0.2920
     41 H           5.7341    6.3411    8.4708 H       2  LIG2        0.2545
     42 H           6.6534    6.4139    9.6845 H       2  LIG2        0.2545
     43 N           4.7213    8.5676    8.6113 N.pl3   2  LIG2       -0.2920
     44 H           4.4056    8.1188    7.9234 H       2  LIG2        0.2545
     45 H           4.4372    9.3844    8.7723 H       2  LIG2        0.2545
     46 N           6.0758    8.6983   10.4553 N.pl3   2  LIG2       -0.2920
     47 H           6.6649    8.3373   10.9997 H       2  LIG2        0.2545
     48 H           5.7818    9.5149   10.6036 H       2  LIG2        0.2545
     49 OXT         2.3228    5.1195   -1.4961 O.co2   1  GLU1       -0.2400
     50 O           4.1572    3.8370   -1.6208 O.co2   1  GLU1       -0.2400
     51 OE2         5.7563    4.7518    3.6886 O.co2   1  GLU1       -0.2464
     52 OE1         6.1417    3.0807    2.2730 O.co2   1  GLU1       -0.2464
     53 O           3.7059    7.6288    6.1177 O.co2   1  GLU1       -0.2400
     54 OXT         4.8474    5.8038    6.7162 O.co2   1  GLU1       -0.2400
     55 OE2         1.6033    7.6405    2.8095 O.co2   1  GLU1       -0.2464
     56 OE1         1.5107    5.8876    1.4688 O.co2   1  GLU1       -0.2464
@<TRIPOS>BOND
     1    50     1   ar
     2    49     1   ar
     3     3     2    1
     4     1     2    1
     5    25    23    1
     6     2    23    1
     7     2     4    1
     8    23    26    1
     9    23    24    1
    10     6     4    1
    11     4     5    1
    12     4     7    1
    13     8     7    1
    14    56    20   ar
    15     7     9    1
    16     7    10    1
    17    52    10   ar
    18    10    51   ar
    19    20    55   ar
    20    20    17    1
    21    32    31    1
    22    36    34    1
    23    31    33    1
    24    31    21    2
    25    18    17    1
    26    17    19    1
    27    17    14    1
    28    34    21    1
    29    34    35    1
    30    13    12    1
    31    21    37    1
    32    30    27    1
    33    14    12    1
    34    14    15    1
    35    14    16    1
    36    12    27    1
    37    12    11    1
    38    37    39    1
    39    37    38    1
    40    27    29    1
    41    27    28    1
    42    11    53   ar
    43    11    54   ar
    44    44    43    1
    45    41    40    1
    46    43    45    1
    47    43    22    2
    48    40    22    1
    49    40    42    1
    50    22    46    1
    51    46    48    1
    52    46    47    1
