@<TRIPOS>MOLECULE
<i>N</i>^2^,<i>N</i>^2'^-Bis[4-(dimethylamino)benzylidene]pyridine-2,6- dicarbohydrazide monohydrate
 34 33 0 0 0
SMALL
GASTEIGER

@<TRIPOS>ATOM
      1 N          -0.9275    0.3269    6.7142 N.pl3   1  LIG1       -0.1242
      2 N           0.6128    1.6911    4.9774 N.am    1  LIG1       -0.2277
      3 H          -0.1169    1.9923    5.3204 H       1  LIG1        0.1710
      4 N           1.4037    2.5341    4.2281 N.3     1  LIG1       -0.1325
      5 N           3.5532    7.9086    1.3826 N.pl3   1  LIG1       -0.3360
      6 O           1.9644   -0.1069    4.7362 O.2     1  LIG1       -0.2674
      7 O           7.6443    3.5384    6.7142 O.3     2  HOH2       -0.2528
      8 H           7.1335    4.0915    6.3168 H       0  HOH0        0.2528
      9 C           0.9544    0.4133    5.1850 C.2     1  LIG1        0.2759
     10 C          -0.0289   -0.3608    6.0109 C.2     1  LIG1        0.1315
     11 C           0.0094   -1.7497    5.9886 C.2     1  LIG1       -0.0501
     12 H           0.6553   -2.2010    5.4949 H       1  LIG1        0.0596
     13 C          -0.9275   -2.4374    6.7142 C.3     1  LIG1       -0.0069
     14 H          -0.9275   -3.3678    6.7142 H       1  LIG1        0.0355
     15 C           0.9190    3.7050    4.0823 C.3     1  LIG1        0.0930
     16 H           0.0856    3.8921    4.4502 H       1  LIG1        0.0564
     17 C           1.6173    4.7597    3.3644 C.ar    1  LIG1       -0.0252
     18 C           2.8539    4.5798    2.7467 C.ar    1  LIG1       -0.0552
     19 H           3.2633    3.7451    2.7797 H       1  LIG1        0.0621
     20 C           3.4705    5.5996    2.0991 C.ar    1  LIG1       -0.0404
     21 H           4.2895    5.4403    1.6866 H       1  LIG1        0.0636
     22 C           2.9151    6.8867    2.0307 C.ar    1  LIG1        0.0292
     23 C           1.6817    7.0625    2.6562 C.ar    1  LIG1       -0.0404
     24 H           1.2789    7.9003    2.6374 H       1  LIG1        0.0636
     25 C           1.0489    6.0283    3.2970 C.ar    1  LIG1       -0.0552
     26 H           0.2215    6.1784    3.6955 H       1  LIG1        0.0621
     27 C           4.8024    7.6937    0.7037 C.3     1  LIG1        0.0004
     28 H           5.4466    7.3411    1.3214 H       1  LIG1        0.0428
     29 H           5.1214    8.5274    0.3491 H       1  LIG1        0.0428
     30 H           4.6735    7.0697   -0.0134 H       1  LIG1        0.0428
     31 C           2.9418    9.2152    1.2846 C.3     1  LIG1        0.0004
     32 H           2.1932    9.1730    0.6849 H       1  LIG1        0.0428
     33 H           3.5845    9.8443    0.9507 H       1  LIG1        0.0428
     34 H           2.6426    9.4938    2.1539 H       1  LIG1        0.0428
@<TRIPOS>BOND
     1    30    27    1
     2    29    27    1
     3    32    31    1
     4    27    28    1
     5    27     5    1
     6    33    31    1
     7    31     5    1
     8    31    34    1
     9     5    22    1
    10    21    20    1
    11    22    20   ar
    12    22    23   ar
    13    20    18   ar
    14    24    23    1
    15    23    25   ar
    16    18    19    1
    17    18    17   ar
    18    25    17   ar
    19    25    26    1
    20    17    15    1
    21    15     4    1
    22    15    16    1
    23     4     2    1
    24     6     9    2
    25     2     9   am
    26     2     3    1
    27     9    10    1
    28    12    11    1
    29    11    10    2
    30    11    13    1
    31    10     1    1
    32     8     7    1
    33    13    14    1
