@<TRIPOS>MOLECULE
2-(1,2,3,4-Tetrahydro-1-naphthyl)imidazolium chloride monohydrate
 34 34 0 0 0
SMALL
GASTEIGER

@<TRIPOS>ATOM
      1 CL          7.1453    5.0857    0.0318 Cl      1  LIG1        0.0000
      2 N           5.7310    3.0784    8.3987 N.pl3   2  LIG2       -0.3249
      3 H           6.0329    3.6367    9.0082 H       2  LIG2        0.1477
      4 N           4.4076    2.0196    7.0971 N.pl3   2  LIG2       -0.3249
      5 H           3.6756    1.7519    6.6883 H       2  LIG2        0.1477
      6 C           6.5019    2.1794    7.6937 C.2     2  LIG2        0.0048
      7 H           7.4401    2.0546    7.7714 H       2  LIG2        0.0791
      8 C           5.6698    1.5121    6.8759 C.2     2  LIG2        0.0048
      9 H           5.9061    0.8246    6.2641 H       2  LIG2        0.0791
     10 C           4.4605    2.9739    8.0187 C.3     2  LIG2        0.1420
     11 C           3.2963    3.7273    8.5785 C.3     2  LIG2        0.0258
     12 H           3.6607    4.4360    9.1819 H       2  LIG2        0.0387
     13 C           2.5074    4.4327    7.4661 C.3     2  LIG2       -0.0423
     14 H           3.0280    5.2036    7.1272 H       2  LIG2        0.0272
     15 H           2.3611    3.8052    6.7135 H       2  LIG2        0.0272
     16 C           1.1661    4.9164    7.9955 C.3     2  LIG2       -0.0484
     17 H           0.6937    5.4241    7.2893 H       2  LIG2        0.0269
     18 H           1.3111    5.5216    8.7661 H       2  LIG2        0.0269
     19 C           0.3149    3.7325    8.4294 C.3     2  LIG2       -0.0274
     20 H          -0.4982    4.0674    8.8840 H       2  LIG2        0.0313
     21 H           0.0272    3.2288    7.6272 H       2  LIG2        0.0313
     22 C           1.0478    2.8018    9.3562 C.ar    2  LIG2       -0.0438
     23 C           2.4438    2.7874    9.4372 C.ar    2  LIG2       -0.0374
     24 C           3.0731    1.9315   10.3376 C.ar    2  LIG2       -0.0579
     25 H           4.0210    1.9305   10.3945 H       2  LIG2        0.0620
     26 C           2.3423    1.0821   11.1509 C.ar    2  LIG2       -0.0615
     27 H           2.7837    0.5041   11.7619 H       2  LIG2        0.0618
     28 C           0.9544    1.0854   11.0638 C.ar    2  LIG2       -0.0615
     29 H           0.4403    0.5054   11.6134 H       2  LIG2        0.0618
     30 C           0.3339    1.9287   10.1820 C.ar    2  LIG2       -0.0583
     31 H          -0.6152    1.9203   10.1293 H       2  LIG2        0.0620
     32 O           4.5158    5.7143    1.8558 O.3     3  HOH3       -0.4105
     33 H           4.0181    6.1689    1.3158 H       0  HOH0        0.2052
     34 H           5.2317    5.5102    1.4315 H       0  HOH0        0.2052
@<TRIPOS>BOND
     1    33    32    1
     2    34    32    1
     3     9     8    1
     4     5     4    1
     5    15    13    1
     6     8     4    1
     7     8     6    2
     8     4    10    1
     9    14    13    1
    10    17    16    1
    11    13    16    1
    12    13    11    1
    13    21    19    1
    14     6     7    1
    15     6     2    1
    16    16    19    1
    17    16    18    1
    18    10     2    1
    19    10    11    1
    20     2     3    1
    21    19    20    1
    22    19    22    1
    23    11    12    1
    24    11    23    1
    25    22    23   ar
    26    22    30   ar
    27    23    24   ar
    28    31    30    1
    29    30    28   ar
    30    24    25    1
    31    24    26   ar
    32    28    26   ar
    33    28    29    1
    34    26    27    1
