@<TRIPOS>MOLECULE
4-(4-Chlorophenyl)-4-hydroxypiperidinium maleate maleic acid solvate
 52 51 0 0 0
SMALL
GASTEIGER

@<TRIPOS>ATOM
      1 CL          9.1498    5.2264    4.0575 Cl      1  LIG1       -0.0835
      2 O           2.8775    4.6261   12.6375 O.co2   2  LIG2       -0.2413
      3 O           4.1281    5.2002   10.6582 O.3     2  LIG2       -0.4775
      4 C           3.7458    4.4500    9.6705 C.2     2  LIG2        0.3298
      5 C           2.5969    3.5103    9.8666 C.2     2  LIG2        0.0292
      6 H           2.3632    3.0241    9.1084 H       2  LIG2        0.0691
      7 C           1.9635    3.7712   12.3393 C.2     2  LIG2        0.3797
      8 C           1.8476    3.2494   10.9467 C.2     2  LIG2        0.0334
      9 H           1.1489    2.6520   10.8056 H       2  LIG2        0.0692
     10 O           8.2486    2.8227   24.1069 O.2     3  LIG3       -0.2458
     11 C           7.8619    2.7837   25.2701 C.2     3  LIG3        0.3298
     12 C           6.7117    3.5446   25.8156 C.2     3  LIG3        0.0291
     13 H           6.5408    3.4214   26.7227 H       3  LIG3        0.0691
     14 C           5.8480    4.8763   23.7727 C.2     3  LIG3        0.3298
     15 C           5.8842    4.3851   25.1804 C.2     3  LIG3        0.0291
     16 H           5.2066    4.7257   25.7185 H       3  LIG3        0.0691
     17 O           8.4360    2.0534   26.1897 O.3     3  LIG3       -0.4775
     18 O           4.9966    5.6987   23.4737 O.2     3  LIG3       -0.2458
     19 O           1.1742    3.3537   13.2007 O.co2   2  LIG2       -0.2413
     20 O           4.2816    4.5036    8.5631 O.2     2  LIG2       -0.2458
     21 C           7.1338    1.9039    6.3626 C.ar    1  LIG1       -0.0157
     22 C           8.3682    3.9485    4.9474 C.ar    1  LIG1        0.0410
     23 C           7.5468    4.2685    6.0113 C.ar    1  LIG1       -0.0430
     24 H           7.4054    5.1560    6.2514 H       1  LIG1        0.0632
     25 C           6.9342    3.2377    6.7201 C.ar    1  LIG1       -0.0545
     26 H           6.3841    3.4410    7.4414 H       1  LIG1        0.0622
     27 C           7.9782    1.6216    5.2868 C.ar    1  LIG1       -0.0545
     28 H           8.1301    0.7364    5.0463 H       1  LIG1        0.0622
     29 C           8.5963    2.6362    4.5700 C.ar    1  LIG1       -0.0430
     30 H           9.1515    2.4388    3.8512 H       1  LIG1        0.0632
     31 O           6.3181   -0.3840    6.2624 O.3     1  LIG1       -0.3836
     32 H           5.8685   -0.1660    5.6112 H       1  LIG1        0.2106
     33 C           7.4300    0.2710    8.2337 C.3     1  LIG1        0.0206
     34 H           8.2630   -0.0291    7.8406 H       1  LIG1        0.0348
     35 H           7.6291    1.0156    8.8222 H       1  LIG1        0.0348
     36 C           5.1389    1.1334    7.7326 C.3     1  LIG1        0.0206
     37 H           5.2541    1.9093    8.3025 H       1  LIG1        0.0348
     38 H           4.5231    1.3720    7.0221 H       1  LIG1        0.0348
     39 C           6.4920    0.7470    7.1223 C.3     1  LIG1        0.1005
     40 C           6.8269   -0.8599    9.0469 C.3     1  LIG1       -0.0307
     41 H           6.7011   -1.6387    8.4833 H       1  LIG1        0.0815
     42 H           7.4281   -1.1022    9.7687 H       1  LIG1        0.0815
     43 C           4.5524   -0.0099    8.5468 C.3     1  LIG1       -0.0307
     44 H           3.7191    0.2738    8.9528 H       1  LIG1        0.0815
     45 H           4.3628   -0.7615    7.9636 H       1  LIG1        0.0815
     46 N           5.5129   -0.4288    9.6103 N.4     1  LIG1        0.2271
     47 O           6.7124    4.4500   22.8780 O.3     3  LIG3       -0.4775
     48 H           5.1474   -1.1171   10.0398 H       1  LIG1        0.2013
     49 H           5.6492    0.2439   10.1679 H       1  LIG1        0.2013
     50 H           7.2841    3.8548   23.2581 H       3  LIG3        0.2954
     51 H           9.1609    1.6206   25.8766 H       3  LIG3        0.2954
     52 H           3.5269    4.9483   11.6441 H       2  LIG2        0.2954
@<TRIPOS>BOND
     1    30    29    1
     2     1    22    1
     3    29    22   ar
     4    29    27   ar
     5    22    23   ar
     6    28    27    1
     7    27    21   ar
     8    32    31    1
     9    23    24    1
    10    23    25   ar
    11    31    39    1
    12    21    25   ar
    13    21    39    1
    14    25    26    1
    15    38    36    1
    16    39    36    1
    17    39    33    1
    18    36    37    1
    19    36    43    1
    20    34    33    1
    21    45    43    1
    22    33    35    1
    23    33    40    1
    24    41    40    1
    25    43    44    1
    26    43    46    1
    27    20     4    2
    28    40    46    1
    29    40    42    1
    30     6     5    1
    31    46    48    1
    32    46    49    1
    33     4     5    1
    34     4     3    1
    35     5     8    2
    36     3    52    1
    37     9     8    1
    38     8     7    1
    39     7     2   ar
    40     7    19   ar
    41    47    50    1
    42    47    14    1
    43    18    14    2
    44    14    15    1
    45    10    11    2
    46    15    16    1
    47    15    12    2
    48    11    12    1
    49    11    17    1
    50    12    13    1
    51    51    17    1
