@<TRIPOS>MOLECULE
<i>N</i>-(3-Methylphenyl)quinoxalin-2-amine monohydrate
 34 35 0 0 0
SMALL
GASTEIGER

@<TRIPOS>ATOM
      1 O           0.3936   10.0658    3.5747 O.3     1  HOH1       -0.4105
      2 N           0.8278    8.2411    5.7800 N.pl3   2  LIG2       -0.2982
      3 N           0.4510    6.0593    6.5643 N.ar    2  LIG2       -0.2288
      4 N          -0.1071    5.3422    3.8736 N.ar    2  LIG2       -0.2500
      5 C           1.3033    8.8928    6.9339 C.ar    2  LIG2        0.0327
      6 C           1.4282   10.2857    6.8427 C.ar    2  LIG2       -0.0405
      7 H           1.1357   10.7417    6.0624 H       2  LIG2        0.0636
      8 C           1.9798   10.9946    7.8958 C.ar    2  LIG2       -0.0598
      9 H           2.0659   11.9388    7.8326 H       2  LIG2        0.0618
     10 C           2.4079   10.3399    9.0429 C.ar    2  LIG2       -0.0587
     11 H           2.8007   10.8361    9.7514 H       2  LIG2        0.0620
     12 C           2.2653    8.9605    9.1610 C.ar    2  LIG2       -0.0487
     13 C           1.7120    8.2368    8.1008 C.ar    2  LIG2       -0.0376
     14 H           1.6134    7.2947    8.1727 H       2  LIG2        0.0639
     15 C           2.7268    8.2446   10.4091 C.3     2  LIG2       -0.0397
     16 H           2.3880    8.7150   11.1996 H       2  LIG2        0.0278
     17 H           3.7057    8.2287   10.4338 H       2  LIG2        0.0278
     18 H           2.3849    7.3258   10.4038 H       2  LIG2        0.0278
     19 C           0.5147    6.9303    5.5794 C.ar    2  LIG2        0.1419
     20 C           0.2354    6.5474    4.2111 C.ar    2  LIG2        0.0683
     21 H           0.3066    7.2070    3.5307 H       2  LIG2        0.0865
     22 C          -0.1692    4.4013    4.8886 C.ar    2  LIG2        0.0893
     23 C          -0.5321    3.0734    4.5845 C.ar    2  LIG2       -0.0342
     24 H          -0.7374    2.8306    3.6890 H       2  LIG2        0.0639
     25 C          -0.5890    2.1325    5.5783 C.ar    2  LIG2       -0.0596
     26 H          -0.8346    1.2382    5.3704 H       2  LIG2        0.0618
     27 C          -0.2846    2.4848    6.9059 C.ar    2  LIG2       -0.0596
     28 H          -0.3219    1.8245    7.5887 H       2  LIG2        0.0618
     29 C           0.0664    3.7776    7.2253 C.ar    2  LIG2       -0.0342
     30 H           0.2694    4.0044    8.1256 H       2  LIG2        0.0639
     31 C           0.1257    4.7647    6.2214 C.ar    2  LIG2        0.0913
     32 H           0.6940    8.7572    5.0944 H       2  LIG2        0.1536
     33 H           1.0304   10.1398    3.0173 H       0  HOH0        0.2052
     34 H          -0.3009   10.2786    3.1488 H       0  HOH0        0.2052
@<TRIPOS>BOND
     1    33     1    1
     2    34     1    1
     3    21    20    1
     4    24    23    1
     5     4    20   ar
     6     4    22   ar
     7    20    19   ar
     8    23    22   ar
     9    23    25   ar
    10    22    31   ar
    11    32     2    1
    12    26    25    1
    13    25    27   ar
    14    19     2    1
    15    19     3   ar
    16     2     5    1
    17     7     6    1
    18    31     3   ar
    19    31    29   ar
    20     6     5   ar
    21     6     8   ar
    22    27    29   ar
    23    27    28    1
    24     5    13   ar
    25    29    30    1
    26     9     8    1
    27     8    10   ar
    28    13    14    1
    29    13    12   ar
    30    10    12   ar
    31    10    11    1
    32    12    15    1
    33    18    15    1
    34    15    17    1
    35    15    16    1
