@<TRIPOS>MOLECULE
(<i>E</i>)-5,6-Dimethoxy-2-(pyridin-4-ylmethylidene)- 2,3-dihydro-1<i>H</i>-inden-1-one
 36 38 0 0 0
SMALL
GASTEIGER

@<TRIPOS>ATOM
      1 O           5.0390    6.9776   -2.3475 O.2     1  LIG1       -0.2870
      2 O           9.1664    3.7161   -0.8205 O.3     1  LIG1       -0.4914
      3 O           8.8419    3.6866    1.7109 O.3     1  LIG1       -0.4914
      4 N           0.2920    9.7809    2.2640 N.ar    1  LIG1       -0.2632
      5 C           5.1967    6.7510   -1.1506 C.2     1  LIG1        0.1899
      6 C           6.2396    5.9296   -0.5333 C.ar    1  LIG1        0.0291
      7 C           7.2745    5.2144   -1.1590 C.ar    1  LIG1       -0.0052
      8 H           7.3828    5.2435   -2.0823 H       1  LIG1        0.0662
      9 C           8.1268    4.4681   -0.3717 C.ar    1  LIG1        0.1622
     10 C           7.9544    4.4547    1.0469 C.ar    1  LIG1        0.1618
     11 C           6.9482    5.2006    1.6558 C.ar    1  LIG1       -0.0121
     12 H           6.8562    5.2108    2.5805 H       1  LIG1        0.0658
     13 C           6.0809    5.9329    0.8432 C.ar    1  LIG1       -0.0285
     14 C           4.8933    6.7640    1.2753 C.3     1  LIG1        0.0020
     15 H           4.2432    6.2245    1.7516 H       1  LIG1        0.0363
     16 H           5.1696    7.5016    1.8412 H       1  LIG1        0.0363
     17 C           4.3320    7.2624   -0.0328 C.2     1  LIG1        0.0048
     18 C           3.2669    8.0397   -0.3059 C.2     1  LIG1       -0.0474
     19 H           3.1357    8.2331   -1.2058 H       1  LIG1        0.0627
     20 C           2.2858    8.6245    0.6108 C.ar    1  LIG1       -0.0218
     21 C           2.1484    8.2667    1.9553 C.ar    1  LIG1       -0.0364
     22 H           2.7249    7.6444    2.3365 H       1  LIG1        0.0639
     23 C           1.1445    8.8485    2.7161 C.ar    1  LIG1        0.0281
     24 H           1.0561    8.5730    3.6000 H       1  LIG1        0.0830
     25 C           0.4338   10.1379    0.9773 C.ar    1  LIG1        0.0281
     26 H          -0.1370   10.7881    0.6354 H       1  LIG1        0.0830
     27 C           1.3897    9.5857    0.1282 C.ar    1  LIG1       -0.0364
     28 H           1.4333    9.8561   -0.7610 H       1  LIG1        0.0639
     29 C           9.4573    3.7727   -2.2184 C.3     1  LIG1        0.0790
     30 H          10.2106    3.2099   -2.4116 H       1  LIG1        0.0660
     31 H           9.6627    4.6772   -2.4665 H       1  LIG1        0.0660
     32 H           8.6946    3.4698   -2.7163 H       1  LIG1        0.0660
     33 C           8.7008    3.6052    3.1326 C.3     1  LIG1        0.0790
     34 H           9.3715    3.0163    3.4874 H       1  LIG1        0.0660
     35 H           7.8289    3.2650    3.3488 H       1  LIG1        0.0660
     36 H           8.8080    4.4793    3.5148 H       1  LIG1        0.0660
@<TRIPOS>BOND
     1    32    29    1
     2    31    29    1
     3    30    29    1
     4     1     5    2
     5    29     2    1
     6     8     7    1
     7    19    18    1
     8     7     6   ar
     9     7     9   ar
    10     5     6    1
    11     5    17    1
    12     2     9    1
    13    28    27    1
    14     6    13   ar
    15     9    10   ar
    16    18    17    2
    17    18    20    1
    18    17    14    1
    19    27    20   ar
    20    27    25   ar
    21    20    21   ar
    22    26    25    1
    23    13    14    1
    24    13    11   ar
    25    25     4   ar
    26    10    11   ar
    27    10     3    1
    28    14    15    1
    29    14    16    1
    30    11    12    1
    31     3    33    1
    32    21    22    1
    33    21    23   ar
    34     4    23   ar
    35    23    24    1
    36    33    35    1
    37    33    34    1
    38    33    36    1
