@<TRIPOS>MOLECULE
5'-Amino-2-oxo-2',3'-dihydrospiro[indoline-3,7'-thieno[3,2-<i>b</i>]pyran]-6'- carbonitrile 1',1'-dioxide
 34 37 0 0 0
SMALL
GASTEIGER

@<TRIPOS>ATOM
      1 S           3.3712    2.3757    2.7699 S.O2    1  LIG1       -0.0016
      2 O          -0.0936    3.7955    1.8241 O.2     1  LIG1       -0.4439
      3 O           4.2447    1.9909    1.6972 O.2     1  LIG1       -0.1695
      4 O           3.9999    2.7748    4.0079 O.2     1  LIG1       -0.1695
      5 O           3.3226    4.2911   -0.5647 O.2     1  LIG1       -0.2737
      6 N          -1.0725    5.6213    1.0220 N.pl3   1  LIG1       -0.3284
      7 N           4.7064    5.5455    0.7786 N.am    1  LIG1       -0.2839
      8 N           1.5689    7.8638    0.0120 N.1     1  LIG1       -0.1910
      9 C           0.0958    5.0716    1.3576 C.2     1  LIG1        0.1989
     10 C           1.3390    5.6337    1.2658 C.2     1  LIG1        0.1113
     11 C           2.6272    4.9573    1.7156 C.3     1  LIG1        0.1575
     12 C           2.2494    3.5889    2.1963 C.2     1  LIG1        0.1281
     13 C           1.0162    3.1056    2.2177 C.2     1  LIG1        0.1311
     14 C           0.7593    1.7230    2.7003 C.3     1  LIG1        0.0270
     15 H           0.3455    1.1790    1.9835 H       1  LIG1        0.0360
     16 H           0.1462    1.7374    3.4782 H       1  LIG1        0.0360
     17 C           2.1161    1.1346    3.1003 C.3     1  LIG1        0.0776
     18 H           2.3007    0.3156    2.5762 H       1  LIG1        0.0508
     19 H           2.1143    0.8977    4.0618 H       1  LIG1        0.0508
     20 C           1.4541    6.8726    0.5926 C.1     1  LIG1        0.1016
     21 C           3.5852    4.8561    0.4867 C.2     1  LIG1        0.2389
     22 C           4.6638    6.1063    2.0752 C.ar    1  LIG1        0.0383
     23 C           3.4588    5.7718    2.6915 C.ar    1  LIG1       -0.0004
     24 C           3.1949    6.1710    3.9850 C.ar    1  LIG1       -0.0551
     25 H           2.3843    5.9301    4.4151 H       1  LIG1        0.0621
     26 C           4.1600    6.9416    4.6441 C.ar    1  LIG1       -0.0613
     27 H           4.0034    7.2300    5.5350 H       1  LIG1        0.0618
     28 C           5.3406    7.2873    4.0098 C.ar    1  LIG1       -0.0600
     29 H           5.9752    7.8195    4.4750 H       1  LIG1        0.0618
     30 C           5.6239    6.8777    2.7124 C.ar    1  LIG1       -0.0402
     31 H           6.4375    7.1148    2.2826 H       1  LIG1        0.0636
     32 H          -1.1515    6.4754    0.8060 H       1  LIG1        0.1451
     33 H          -1.7668    5.0936    0.9652 H       1  LIG1        0.1451
     34 H           5.3164    5.6145    0.2100 H       1  LIG1        0.1549
@<TRIPOS>BOND
     1     5    21    2
     2     8    20    3
     3    34     7    1
     4    21     7   am
     5    21    11    1
     6    20    10    1
     7     7    22    1
     8    32     6    1
     9    33     6    1
    10     6     9    1
    11    10     9    2
    12    10    11    1
    13     9     2    1
    14     3     1    2
    15    11    12    1
    16    11    23    1
    17     2    13    1
    18    15    14    1
    19    22    23   ar
    20    22    30   ar
    21    12    13    2
    22    12     1    1
    23    13    14    1
    24    31    30    1
    25    18    17    1
    26    23    24   ar
    27    14    17    1
    28    14    16    1
    29    30    28   ar
    30     1    17    1
    31     1     4    2
    32    17    19    1
    33    24    25    1
    34    24    26   ar
    35    28    29    1
    36    28    26   ar
    37    26    27    1
