@<TRIPOS>MOLECULE
8-(Diphenylphosphanyl)quinoline
 39 42 0 0 0
SMALL
GASTEIGER

@<TRIPOS>ATOM
      1 P           6.8310   16.7799    5.8349 P.3     1  LIG1       -0.0110
      2 N           7.2804   14.0257    6.6218 N.ar    1  LIG1       -0.2543
      3 C           7.5657   12.8448    7.1375 C.ar    1  LIG1        0.0283
      4 H           7.8887   12.8150    8.0299 H       1  LIG1        0.0830
      5 C           7.4209   11.6248    6.4468 C.ar    1  LIG1       -0.0430
      6 H           7.6318   10.8021    6.8733 H       1  LIG1        0.0633
      7 C           6.9754   11.6388    5.1629 C.ar    1  LIG1       -0.0511
      8 H           6.8970   10.8288    4.6739 H       1  LIG1        0.0625
      9 C           6.6295   12.8735    4.5605 C.ar    1  LIG1        0.0010
     10 C           6.1275   12.9802    3.2397 C.ar    1  LIG1       -0.0525
     11 H           6.0100   12.1991    2.7127 H       1  LIG1        0.0624
     12 C           5.8116   14.2055    2.7215 C.ar    1  LIG1       -0.0605
     13 H           5.4736   14.2687    1.8358 H       1  LIG1        0.0618
     14 C           5.9831   15.3805    3.4922 C.ar    1  LIG1       -0.0515
     15 H           5.7540   16.2232    3.1169 H       1  LIG1        0.0625
     16 C           6.4763   15.3230    4.7780 C.ar    1  LIG1        0.0112
     17 C           6.8064   14.0507    5.3348 C.ar    1  LIG1        0.0791
     18 C           6.2826   18.1728    4.7638 C.ar    1  LIG1       -0.0146
     19 C           5.0891   18.8766    4.9390 C.ar    1  LIG1       -0.0535
     20 H           4.4602   18.5832    5.5869 H       1  LIG1        0.0624
     21 C           4.8126   20.0059    4.1718 C.ar    1  LIG1       -0.0611
     22 H           4.0033   20.4843    4.3077 H       1  LIG1        0.0618
     23 C           5.7147   20.4348    3.2109 C.ar    1  LIG1       -0.0617
     24 H           5.5288   21.2103    2.6956 H       1  LIG1        0.0618
     25 C           6.8889   19.7280    3.0045 C.ar    1  LIG1       -0.0611
     26 H           7.4946   20.0036    2.3275 H       1  LIG1        0.0618
     27 C           7.1813   18.6176    3.7853 C.ar    1  LIG1       -0.0535
     28 H           8.0005   18.1543    3.6545 H       1  LIG1        0.0624
     29 C           5.4598   16.6993    7.0526 C.ar    1  LIG1       -0.0146
     30 C           4.2721   16.0008    6.8322 C.ar    1  LIG1       -0.0535
     31 H           4.1442   15.5355    6.0136 H       1  LIG1        0.0624
     32 C           3.2767   15.9798    7.7977 C.ar    1  LIG1       -0.0611
     33 H           2.4711   15.5021    7.6383 H       1  LIG1        0.0618
     34 C           3.4546   16.6581    8.9991 C.ar    1  LIG1       -0.0617
     35 H           2.7723   16.6421    9.6600 H       1  LIG1        0.0618
     36 C           4.6321   17.3595    9.2298 C.ar    1  LIG1       -0.0611
     37 H           4.7547   17.8255   10.0479 H       1  LIG1        0.0618
     38 C           5.6294   17.3776    8.2633 C.ar    1  LIG1       -0.0535
     39 H           6.4338   17.8555    8.4268 H       1  LIG1        0.0624
@<TRIPOS>BOND
     1    13    12    1
     2    26    25    1
     3    24    23    1
     4    11    10    1
     5    12    10   ar
     6    12    14   ar
     7    25    23   ar
     8    25    27   ar
     9    15    14    1
    10    23    21   ar
    11    10     9   ar
    12    14    16   ar
    13    28    27    1
    14    27    18   ar
    15    21    22    1
    16    21    19   ar
    17     9     7   ar
    18     9    17   ar
    19     8     7    1
    20    18    19   ar
    21    18     1    1
    22    16    17   ar
    23    16     1    1
    24    19    20    1
    25     7     5   ar
    26    17     2   ar
    27     1    29    1
    28    31    30    1
    29     5     6    1
    30     5     3   ar
    31     2     3   ar
    32    30    29   ar
    33    30    32   ar
    34    29    38   ar
    35     3     4    1
    36    33    32    1
    37    32    34   ar
    38    38    39    1
    39    38    36   ar
    40    34    36   ar
    41    34    35    1
    42    36    37    1
