@<TRIPOS>MOLECULE
<i>N</i>-[(2-Chloro-3-quinolyl)methyl]-4-fluoroaniline
 32 34 0 0 0
SMALL
GASTEIGER

@<TRIPOS>ATOM
      1 CL         10.4497    0.9407    8.3685 Cl      1  LIG1       -0.0617
      2 N          11.1434    2.4845    6.4139 N.ar    1  LIG1       -0.2349
      3 N           6.5050    2.9647    7.8832 N.pl3   1  LIG1       -0.3396
      4 H           5.8439    2.7230    7.3898 H       1  LIG1        0.1464
      5 F           6.0000    7.6215   10.8040 F       1  LIG1       -0.2055
      6 C          10.1199    2.1268    7.1341 C.ar    1  LIG1        0.1346
      7 C           9.6449    3.9582    5.1888 C.ar    1  LIG1        0.0008
      8 C           7.6813    2.1375    7.9327 C.3     1  LIG1        0.0372
      9 H           7.4390    1.2313    7.6875 H       1  LIG1        0.0512
     10 H           8.0136    2.1175    8.8436 H       1  LIG1        0.0512
     11 C           8.7899    2.6152    7.0155 C.ar    1  LIG1        0.0070
     12 C          12.0268    3.8215    4.6338 C.ar    1  LIG1       -0.0357
     13 H          12.8724    3.4664    4.7884 H       1  LIG1        0.0639
     14 C          10.9289    3.4126    5.4248 C.ar    1  LIG1        0.0727
     15 C           8.5853    3.5433    6.0269 C.ar    1  LIG1       -0.0450
     16 H           7.7373    3.9051    5.9066 H       1  LIG1        0.0628
     17 C           5.0629    6.0242    9.3424 C.ar    1  LIG1       -0.0247
     18 H           4.2599    6.4930    9.3432 H       1  LIG1        0.0647
     19 C           6.4095    4.1351    8.6065 C.ar    1  LIG1        0.0275
     20 C           9.4815    4.9019    4.1452 C.ar    1  LIG1       -0.0526
     21 H           8.6414    5.2629    3.9731 H       1  LIG1        0.0624
     22 C           6.1433    6.4789   10.0691 C.ar    1  LIG1        0.1235
     23 C          10.5575    5.2844    3.3885 C.ar    1  LIG1       -0.0611
     24 H          10.4427    5.9049    2.7056 H       1  LIG1        0.0618
     25 C           7.4822    4.6434    9.3507 C.ar    1  LIG1       -0.0381
     26 H           8.2950    4.1920    9.3506 H       1  LIG1        0.0637
     27 C          11.8397    4.7453    3.6360 C.ar    1  LIG1       -0.0597
     28 H          12.5629    5.0185    3.1190 H       1  LIG1        0.0618
     29 C           5.1985    4.8527    8.6105 C.ar    1  LIG1       -0.0381
     30 H           4.4777    4.5371    8.1146 H       1  LIG1        0.0637
     31 C           7.3467    5.8165   10.0907 C.ar    1  LIG1       -0.0247
     32 H           8.0583    6.1449   10.5908 H       1  LIG1        0.0647
@<TRIPOS>BOND
     1    24    23    1
     2    28    27    1
     3    23    27   ar
     4    23    20   ar
     5    27    12   ar
     6    21    20    1
     7    20     7   ar
     8    12    13    1
     9    12    14   ar
    10     7    14   ar
    11     7    15   ar
    12    14     2   ar
    13    16    15    1
    14    15    11   ar
    15     2     6   ar
    16    11     6   ar
    17    11     8    1
    18     6     1    1
    19     4     3    1
    20     9     8    1
    21     3     8    1
    22     3    19    1
    23     8    10    1
    24    30    29    1
    25    19    29   ar
    26    19    25   ar
    27    29    17   ar
    28    17    18    1
    29    17    22   ar
    30    26    25    1
    31    25    31   ar
    32    22    31   ar
    33    22     5    1
    34    31    32    1
