@<TRIPOS>MOLECULE
10-(2-Ethoxy-1,3-thiazol-5-yl)-10-hydroxyphenanthren-9(10<i>H</i>)-one
 39 42 0 0 0
SMALL
GASTEIGER

@<TRIPOS>ATOM
      1 S          -0.1329   -1.6760    1.3242 S.2     1  LIG1       -0.0307
      2 O           2.3207   -1.3954    3.7153 O.2     1  LIG1       -0.2882
      3 O           2.0428    0.5029    1.8362 O.3     1  LIG1       -0.3717
      4 O          -2.4421   -2.5929    0.4812 O.3     1  LIG1       -0.4717
      5 N          -2.4493   -0.5839    1.6985 N.ar    1  LIG1       -0.2140
      6 C           1.4813   -0.5474    3.9511 C.2     1  LIG1        0.2047
      7 C           0.7858   -0.4209    5.2431 C.ar    1  LIG1        0.0288
      8 C           0.8346   -1.5003    6.1361 C.ar    1  LIG1       -0.0506
      9 H           1.3132   -2.2652    5.9118 H       1  LIG1        0.0625
     10 C           0.1740   -1.4342    7.3481 C.ar    1  LIG1       -0.0611
     11 H           0.2029   -2.1516    7.9392 H       1  LIG1        0.0618
     12 C          -0.5328   -0.2830    7.6744 C.ar    1  LIG1       -0.0611
     13 H          -1.0021   -0.2440    8.4764 H       1  LIG1        0.0618
     14 C          -0.5469    0.8077    6.8183 C.ar    1  LIG1       -0.0533
     15 H          -1.0061    1.5779    7.0661 H       1  LIG1        0.0624
     16 C           0.1176    0.7692    5.5885 C.ar    1  LIG1       -0.0069
     17 C           0.1946    1.9435    4.6874 C.ar    1  LIG1       -0.0105
     18 C          -0.1856    3.2244    5.1034 C.ar    1  LIG1       -0.0536
     19 H          -0.5187    3.3453    5.9630 H       1  LIG1        0.0624
     20 C          -0.0746    4.3188    4.2547 C.ar    1  LIG1       -0.0612
     21 H          -0.3396    5.1615    4.5455 H       1  LIG1        0.0618
     22 C           0.4321    4.1547    2.9751 C.ar    1  LIG1       -0.0614
     23 H           0.5159    4.8890    2.4109 H       1  LIG1        0.0618
     24 C           0.8154    2.8926    2.5345 C.ar    1  LIG1       -0.0545
     25 H           1.1486    2.7835    1.6736 H       1  LIG1        0.0622
     26 C           0.7012    1.7915    3.3804 C.ar    1  LIG1        0.0042
     27 C           1.0480    0.4157    2.8320 C.3     1  LIG1        0.1868
     28 C          -0.2107   -0.1941    2.2387 C.ar    1  LIG1        0.0562
     29 C          -1.4992    0.2138    2.3210 C.ar    1  LIG1        0.0453
     30 H          -1.7364    0.9914    2.7731 H       1  LIG1        0.0840
     31 C          -1.8569   -1.6054    1.1544 C.ar    1  LIG1        0.2566
     32 C          -3.8637   -2.4002    0.2076 C.3     1  LIG1        0.0889
     33 H          -4.0138   -1.5381   -0.2108 H       1  LIG1        0.0694
     34 H          -4.3752   -2.4378    1.0316 H       1  LIG1        0.0694
     35 C          -4.2788   -3.5123   -0.7191 C.3     1  LIG1       -0.0306
     36 H          -5.2185   -3.4421   -0.9029 H       1  LIG1        0.0262
     37 H          -4.0961   -4.3587   -0.3049 H       1  LIG1        0.0262
     38 H          -3.7865   -3.4448   -1.5402 H       1  LIG1        0.0262
     39 H           2.7084   -0.0298    2.0250 H       1  LIG1        0.2116
@<TRIPOS>BOND
     1    38    35    1
     2    36    35    1
     3    35    37    1
     4    35    32    1
     5    33    32    1
     6    32     4    1
     7    32    34    1
     8     4    31    1
     9    31     1   ar
    10    31     5   ar
    11     1    28   ar
    12    25    24    1
    13     5    29   ar
    14     3    39    1
    15     3    27    1
    16    28    29   ar
    17    28    27    1
    18    29    30    1
    19    23    22    1
    20    24    22   ar
    21    24    26   ar
    22    27    26    1
    23    27     6    1
    24    22    20   ar
    25    26    17   ar
    26     2     6    2
    27     6     7    1
    28    20    21    1
    29    20    18   ar
    30    17    18   ar
    31    17    16    1
    32    18    19    1
    33     7    16   ar
    34     7     8   ar
    35    16    14   ar
    36     9     8    1
    37     8    10   ar
    38    14    15    1
    39    14    12   ar
    40    10    12   ar
    41    10    11    1
    42    12    13    1
