@<TRIPOS>MOLECULE
(<i>E</i>)-<i>N</i>'-(9-Anthrylmethylidene)-<i>p</i>-toluenesulfonohydrazide
 45 48 0 0 0
SMALL
GASTEIGER

@<TRIPOS>ATOM
      1 S          12.1580    5.3326   17.8924 S.O2    1  LIG1        0.0723
      2 O          11.7950    6.5970   17.3139 O.2     1  LIG1       -0.1519
      3 O          13.1908    5.2847   18.8852 O.2     1  LIG1       -0.1519
      4 N          12.7161    4.3658   16.6750 N.3     1  LIG1       -0.1065
      5 H          13.1632    3.6994   16.9762 H       1  LIG1        0.1694
      6 N          11.7429    4.1086   15.6948 N.3     1  LIG1       -0.1315
      7 C          10.6913    4.5812   18.4905 C.ar    1  LIG1        0.1066
      8 C           9.4568    5.1719   18.2436 C.ar    1  LIG1       -0.0351
      9 H           9.3971    5.9844   17.7564 H       1  LIG1        0.0637
     10 C           8.3138    4.5470   18.7264 C.ar    1  LIG1       -0.0570
     11 H           7.4645    4.9371   18.5596 H       1  LIG1        0.0621
     12 C           8.3883    3.3629   19.4470 C.ar    1  LIG1       -0.0503
     13 C           9.6362    2.7861   19.6575 C.ar    1  LIG1       -0.0570
     14 H           9.6957    1.9680   20.1362 H       1  LIG1        0.0621
     15 C          10.7940    3.3823   19.1808 C.ar    1  LIG1       -0.0351
     16 H          11.6422    2.9765   19.3238 H       1  LIG1        0.0637
     17 C           7.1343    2.7112   19.9753 C.3     1  LIG1       -0.0397
     18 H           6.5200    3.4008   20.3009 H       1  LIG1        0.0278
     19 H           7.3656    2.1067   20.7105 H       1  LIG1        0.0278
     20 H           6.7040    2.2019   19.2575 H       1  LIG1        0.0278
     21 C          11.8523    2.9723   15.1124 C.3     1  LIG1        0.0922
     22 H          12.5433    2.3849   15.3927 H       1  LIG1        0.0562
     23 C          10.9575    2.5357   14.0315 C.ar    1  LIG1       -0.0101
     24 C           9.5926    2.9296   13.9752 C.ar    1  LIG1       -0.0125
     25 C           8.9349    3.6698   15.0035 C.ar    1  LIG1       -0.0537
     26 H           9.4353    3.9674   15.7543 H       1  LIG1        0.0624
     27 C           7.6031    3.9600   14.9328 C.ar    1  LIG1       -0.0612
     28 H           7.1867    4.4269   15.6490 H       1  LIG1        0.0618
     29 C           6.8330    3.5773   13.8093 C.ar    1  LIG1       -0.0612
     30 H           5.9140    3.8121   13.7589 H       1  LIG1        0.0618
     31 C           7.4095    2.8776   12.8109 C.ar    1  LIG1       -0.0540
     32 H           6.8898    2.6336   12.0542 H       1  LIG1        0.0624
     33 C           8.7895    2.4940   12.8686 C.ar    1  LIG1       -0.0170
     34 C           9.3417    1.6639   11.8975 C.ar    1  LIG1       -0.0463
     35 H           8.8050    1.3967   11.1596 H       1  LIG1        0.0630
     36 C          10.6566    1.2119   11.9742 C.ar    1  LIG1       -0.0170
     37 C          11.1850    0.3041   11.0046 C.ar    1  LIG1       -0.0540
     38 H          10.6281    0.0046   10.2969 H       1  LIG1        0.0624
     39 C          12.4676   -0.1377   11.0747 C.ar    1  LIG1       -0.0612
     40 H          12.8003   -0.7469   10.4273 H       1  LIG1        0.0618
     41 C          13.3024    0.3180   12.1213 C.ar    1  LIG1       -0.0612
     42 H          14.2015    0.0157   12.1641 H       1  LIG1        0.0618
     43 C          12.8428    1.1795   13.0677 C.ar    1  LIG1       -0.0537
     44 H          13.4323    1.4735   13.7521 H       1  LIG1        0.0624
     45 C          11.4890    1.6552   13.0549 C.ar    1  LIG1       -0.0125
@<TRIPOS>BOND
     1    38    37    1
     2    40    39    1
     3    37    39   ar
     4    37    36   ar
     5    39    41   ar
     6    35    34    1
     7    34    36   ar
     8    34    33   ar
     9    36    45   ar
    10    32    31    1
    11    41    42    1
    12    41    43   ar
    13    31    33   ar
    14    31    29   ar
    15    33    24   ar
    16    45    43   ar
    17    45    23   ar
    18    43    44    1
    19    30    29    1
    20    29    27   ar
    21    24    23   ar
    22    24    25   ar
    23    23    21    1
    24    27    25   ar
    25    27    28    1
    26    25    26    1
    27    21    22    1
    28    21     6    1
    29     6     4    1
    30     4     5    1
    31     4     1    1
    32     2     1    2
    33     9     8    1
    34     1     7    1
    35     1     3    2
    36     8     7   ar
    37     8    10   ar
    38     7    15   ar
    39    11    10    1
    40    10    12   ar
    41    15    16    1
    42    15    13   ar
    43    20    17    1
    44    12    13   ar
    45    12    17    1
    46    13    14    1
    47    17    18    1
    48    17    19    1
