@<TRIPOS>MOLECULE
<i>N</i>'-(3-Hydroxybenzylidene)-4-nitrobenzohydrazide
 32 33 0 0 0
SMALL
GASTEIGER

@<TRIPOS>ATOM
      1 N          -3.9894    2.7215   13.6242 N.3     1  LIG1       -0.1326
      2 N          -3.0852    3.2521   14.5262 N.am    1  LIG1       -0.2288
      3 N           1.5830    6.0985   17.9847 N.pl3   1  LIG1        0.0564
      4 O          -7.1585    1.2434    9.9445 O.3     1  LIG1       -0.5068
      5 H          -7.7690    0.7981    9.5693 H       1  LIG1        0.2921
      6 O          -2.1874    4.6726   13.0070 O.2     1  LIG1       -0.2688
      7 O           2.3690    6.9342   17.6060 O.2     1  LIG1       -0.1261
      8 O           1.5844    5.6358   19.1063 O.2     1  LIG1       -0.1261
      9 C          -5.7672    1.1468   13.2969 C.ar    1  LIG1       -0.0218
     10 C          -5.9783    1.4910   11.9687 C.ar    1  LIG1       -0.0153
     11 H          -5.4638    2.1566   11.5735 H       1  LIG1        0.0657
     12 C          -6.9558    0.8420   11.2330 C.ar    1  LIG1        0.1172
     13 C          -7.7167   -0.1596   11.8104 C.ar    1  LIG1       -0.0202
     14 H          -8.3615   -0.6053   11.3099 H       1  LIG1        0.0654
     15 C          -7.5115   -0.4896   13.1263 C.ar    1  LIG1       -0.0580
     16 H          -8.0291   -1.1567   13.5169 H       1  LIG1        0.0619
     17 C          -6.5463    0.1533   13.8801 C.ar    1  LIG1       -0.0567
     18 H          -6.4190   -0.0771   14.7724 H       1  LIG1        0.0621
     19 C          -4.7626    1.8304   14.1105 C.3     1  LIG1        0.0932
     20 H          -4.6850    1.6087   15.0099 H       1  LIG1        0.0564
     21 C          -2.2132    4.2028   14.1423 C.2     1  LIG1        0.2588
     22 C          -1.2418    4.6708   15.1869 C.ar    1  LIG1        0.0381
     23 C          -0.4280    5.7442   14.8660 C.ar    1  LIG1       -0.0474
     24 H          -0.5009    6.1469   14.0310 H       1  LIG1        0.0626
     25 C           0.4942    6.2204   15.7850 C.ar    1  LIG1       -0.0308
     26 H           1.0420    6.9423   15.5761 H       1  LIG1        0.0640
     27 C           0.5835    5.6044   17.0099 C.ar    1  LIG1        0.1262
     28 C          -0.2054    4.5440   17.3605 C.ar    1  LIG1       -0.0308
     29 H          -0.1259    4.1463   18.1973 H       1  LIG1        0.0640
     30 C          -1.1232    4.0780   16.4381 C.ar    1  LIG1       -0.0474
     31 H          -1.6685    3.3581   16.6579 H       1  LIG1        0.0626
     32 H          -3.1915    3.0577   15.4082 H       1  LIG1        0.1709
@<TRIPOS>BOND
     1     5     4    1
     2     4    12    1
     3    12    13   ar
     4    12    10   ar
     5    14    13    1
     6    11    10    1
     7    13    15   ar
     8    10     9   ar
     9     6    21    2
    10    15    16    1
    11    15    17   ar
    12     9    17   ar
    13     9    19    1
    14     1    19    1
    15     1     2    1
    16    17    18    1
    17    24    23    1
    18    19    20    1
    19    21     2   am
    20    21    22    1
    21     2    32    1
    22    23    22   ar
    23    23    25   ar
    24    22    30   ar
    25    26    25    1
    26    25    27   ar
    27    30    31    1
    28    30    28   ar
    29    27    28   ar
    30    27     3    1
    31    28    29    1
    32     7     3    2
    33     3     8    2
