@<TRIPOS>MOLECULE
4-(<i>p</i>-Tolylamino)benzaldehyde
 29 30 0 0 0
SMALL
GASTEIGER

@<TRIPOS>ATOM
      1 C           8.0315    5.2926    1.5691 C.ar    1  LIG1       -0.0399
      2 H           8.5287    4.5345    1.3613 H       1  LIG1        0.0636
      3 C           7.7263    7.6850    1.4197 C.ar    1  LIG1        0.0143
      4 C           6.8551    5.1720    2.3287 C.ar    1  LIG1        0.0313
      5 C           8.4499    6.5305    1.1340 C.ar    1  LIG1       -0.0498
      6 H           9.2337    6.5966    0.6372 H       1  LIG1        0.0625
      7 C           5.5170    3.6823    3.7741 C.ar    1  LIG1        0.0313
      8 C           6.5411    7.5628    2.1646 C.ar    1  LIG1       -0.0498
      9 H           6.0387    8.3217    2.3558 H       1  LIG1        0.0625
     10 N           6.4285    3.9350    2.7171 N.pl3   1  LIG1       -0.3145
     11 C           6.1151    6.3397    2.6145 C.ar    1  LIG1       -0.0399
     12 H           5.3320    6.2786    3.1113 H       1  LIG1        0.0636
     13 C           4.8459    3.9498    6.0656 C.ar    1  LIG1       -0.0571
     14 H           4.9959    4.3264    6.9032 H       1  LIG1        0.0621
     15 C           3.7418    3.1306    5.8807 C.ar    1  LIG1       -0.0503
     16 C           8.2084    8.9749    0.9486 C.2     1  LIG1        0.1502
     17 C           4.4216    2.8532    3.5776 C.ar    1  LIG1       -0.0403
     18 H           4.2722    2.4733    2.7420 H       1  LIG1        0.0636
     19 C           3.5521    2.5897    4.6196 C.ar    1  LIG1       -0.0571
     20 H           2.8209    2.0348    4.4702 H       1  LIG1        0.0621
     21 C           5.7259    4.2199    5.0372 C.ar    1  LIG1       -0.0403
     22 H           6.4635    4.7649    5.1919 H       1  LIG1        0.0636
     23 C           2.7748    2.8457    7.0089 C.3     1  LIG1       -0.0397
     24 H           3.0672    3.2991    7.8035 H       1  LIG1        0.0278
     25 H           2.7439    1.9002    7.1735 H       1  LIG1        0.0278
     26 H           1.8995    3.1571    6.7656 H       1  LIG1        0.0278
     27 O           7.7059   10.0497    1.1740 O.2     1  LIG1       -0.2957
     28 H           6.7810    3.2454    2.3823 H       1  LIG1        0.1522
     29 H           9.0510    8.8692    0.3886 H       1  LIG1        0.1081
@<TRIPOS>BOND
     1    29    16    1
     2     6     5    1
     3    16    27    2
     4    16     3    1
     5     5     3   ar
     6     5     1   ar
     7     2     1    1
     8     3     8   ar
     9     1     4   ar
    10     8     9    1
    11     8    11   ar
    12     4    11   ar
    13     4    10    1
    14    28    10    1
    15    11    12    1
    16    10     7    1
    17    18    17    1
    18    17     7   ar
    19    17    19   ar
    20     7    21   ar
    21    20    19    1
    22    19    15   ar
    23    21    22    1
    24    21    13   ar
    25    15    13   ar
    26    15    23    1
    27    13    14    1
    28    26    23    1
    29    23    25    1
    30    23    24    1
