@<TRIPOS>MOLECULE
Methyl 3-(2-furylmethylidene)carbazate
 40 40 0 0 0
SMALL
GASTEIGER

@<TRIPOS>ATOM
      1 O           2.4232    7.5097    1.1539 O.2     1  LIG1       -0.2246
      2 N           2.4329    6.6201    3.6986 N.2     1  LIG1       -0.1820
      3 N           1.9686    5.8675    2.6545 N.am    1  LIG1       -0.1721
      4 H           1.6394    5.0838    2.7852 H       1  LIG1        0.1807
      5 O           3.4463    7.9383    5.8781 O.2     1  LIG1       -0.4620
      6 O           1.6311    5.5039    0.5135 O.3     1  LIG1       -0.4526
      7 C           2.8482    6.7222    6.0116 C.ar    1  LIG1        0.1471
      8 C           2.3592    6.0616    4.8410 C.2     1  LIG1        0.0879
      9 H           1.9826    5.2146    4.9152 H       1  LIG1        0.0883
     10 C           2.0415    6.3888    1.4190 C.2     1  LIG1        0.4197
     11 C           2.8535    6.3386    7.3150 C.ar    1  LIG1       -0.0149
     12 H           2.5023    5.5542    7.6676 H       1  LIG1        0.0656
     13 C           1.6393    5.9935   -0.8437 C.3     1  LIG1        0.0833
     14 H           1.3375    5.3012   -1.4347 H       1  LIG1        0.0661
     15 H           2.5298    6.2550   -1.0835 H       1  LIG1        0.0661
     16 H           1.0540    6.7516   -0.9137 H       1  LIG1        0.0661
     17 C           3.5036    7.3713    8.0259 C.ar    1  LIG1       -0.0233
     18 H           3.6667    7.3983    8.9410 H       1  LIG1        0.0649
     19 C           3.8389    8.3003    7.1294 C.ar    1  LIG1        0.0926
     20 H           4.2819    9.0924    7.3335 H       1  LIG1        0.1029
     21 O          -0.1233    3.6087    2.8433 O.2     2  LIG2       -0.2251
     22 N           1.4557    1.9834    2.7049 N.am    2  LIG2       -0.1980
     23 H           1.6420    1.1843    2.4483 H       2  LIG2        0.1740
     24 N           2.3880    2.7415    3.3615 N.3     2  LIG2       -0.1269
     25 C           0.2442    2.5156    2.4712 C.2     2  LIG2        0.4151
     26 O          -0.4940    1.6655    1.7495 O.3     2  LIG2       -0.4528
     27 C           3.5188    2.1768    3.5304 C.3     2  LIG2        0.1286
     28 H           3.6422    1.3050    3.2321 H       2  LIG2        0.0597
     29 O           4.3670    4.0875    4.6968 O.2     2  LIG2       -0.4660
     30 C           4.6023    2.8599    4.1686 C.ar    2  LIG2        0.1271
     31 C           5.8896    2.5373    4.3399 C.ar    2  LIG2       -0.0190
     32 H           6.3014    1.7459    4.0786 H       2  LIG2        0.0652
     33 C          -1.8169    2.1087    1.4219 C.3     2  LIG2        0.0833
     34 H          -2.2587    1.4365    0.8980 H       2  LIG2        0.0661
     35 H          -1.7654    2.9241    0.9194 H       2  LIG2        0.0661
     36 H          -2.3119    2.2619    2.2299 H       2  LIG2        0.0661
     37 C           6.5052    3.6303    4.9951 C.ar    2  LIG2       -0.0236
     38 H           7.4006    3.6984    5.2378 H       2  LIG2        0.0649
     39 C           5.5621    4.5346    5.1936 C.ar    2  LIG2        0.0921
     40 H           5.6923    5.3561    5.6090 H       2  LIG2        0.1029
@<TRIPOS>BOND
     1    14    13    1
     2    15    13    1
     3    16    13    1
     4    13     6    1
     5     6    10    1
     6    34    33    1
     7    35    33    1
     8     1    10    2
     9    10     3   am
    10    33    26    1
    11    33    36    1
    12    26    25    1
    13    23    22    1
    14    25    22   am
    15    25    21    2
    16     3     4    1
    17     3     2    1
    18    22    24    1
    19    28    27    1
    20    24    27    1
    21    27    30    1
    22     2     8    2
    23    32    31    1
    24    30    31   ar
    25    30    29   ar
    26    31    37   ar
    27    29    39   ar
    28     8     9    1
    29     8     7    1
    30    37    39   ar
    31    37    38    1
    32    39    40    1
    33     5     7   ar
    34     5    19   ar
    35     7    11   ar
    36    19    20    1
    37    19    17   ar
    38    11    12    1
    39    11    17   ar
    40    17    18    1
