@<TRIPOS>MOLECULE
<i>N</i>,<i>N</i>'-Bis[(<i>E</i>)-(2-chloro-8-methylquinolin-3- yl)methylidene]ethane-1,2-diamine
 25 26 0 0 0
SMALL
GASTEIGER

@<TRIPOS>ATOM
      1 CL         10.2795    3.6210   12.1080 Cl      1  LIG1       -0.0613
      2 N           9.3137    2.9877    7.9333 N.2     1  LIG1       -0.2891
      3 N          12.4198    4.7207   11.1643 N.ar    1  LIG1       -0.2344
      4 C           8.0491    2.3112    7.6772 C.3     1  LIG1        0.0591
      5 H           7.3089    2.9684    7.7048 H       1  LIG1        0.0526
      6 H           7.8861    1.6339    8.3808 H       1  LIG1        0.0526
      7 C           9.7253    3.0395    9.1309 C.2     1  LIG1        0.0322
      8 H           9.2287    2.6137    9.8196 H       1  LIG1        0.0832
      9 C          10.9727    3.7559    9.4639 C.ar    1  LIG1        0.0300
     10 C          11.3487    4.0825   10.7988 C.ar    1  LIG1        0.1385
     11 C          11.8465    4.1646    8.4772 C.ar    1  LIG1       -0.0411
     12 H          11.6461    3.9794    7.5676 H       1  LIG1        0.0631
     13 C          13.0286    4.8518    8.8004 C.ar    1  LIG1        0.0013
     14 C          13.9538    5.2800    7.8200 C.ar    1  LIG1       -0.0525
     15 H          13.7890    5.1082    6.9000 H       1  LIG1        0.0624
     16 C          15.0809    5.9407    8.2034 C.ar    1  LIG1       -0.0608
     17 H          15.7079    6.2168    7.5452 H       1  LIG1        0.0618
     18 C          15.3311    6.2215    9.5694 C.ar    1  LIG1       -0.0568
     19 H          16.1203    6.6942    9.8084 H       1  LIG1        0.0621
     20 C          14.4610    5.8269   10.5546 C.ar    1  LIG1       -0.0245
     21 C          13.2874    5.1176   10.1784 C.ar    1  LIG1        0.0756
     22 C          14.7080    6.1480   12.0050 C.3     1  LIG1       -0.0377
     23 H          15.5328    6.6709   12.0883 H       1  LIG1        0.0278
     24 H          14.7966    5.3147   12.5138 H       1  LIG1        0.0278
     25 H          13.9549    6.6666   12.3570 H       1  LIG1        0.0278
@<TRIPOS>BOND
     1    15    14    1
     2    17    16    1
     3    12    11    1
     4     4     5    1
     5     4     2    1
     6     4     6    1
     7    14    16   ar
     8    14    13   ar
     9     2     7    2
    10    16    18   ar
    11    11    13   ar
    12    11     9   ar
    13    13    21   ar
    14     7     9    1
    15     7     8    1
    16     9    10   ar
    17    18    19    1
    18    18    20   ar
    19    21    20   ar
    20    21     3   ar
    21    20    22    1
    22    10     3   ar
    23    10     1    1
    24    22    23    1
    25    22    25    1
    26    22    24    1
