@<TRIPOS>MOLECULE
2-Ethyl-5-triphenylmethyl-1,3-dioxane
 53 56 0 0 0
SMALL
GASTEIGER

@<TRIPOS>ATOM
      1 O           2.8084    4.3333    1.1728 O.3     1  LIG1       -0.3509
      2 O           1.6354    4.3532    3.1759 O.3     1  LIG1       -0.3509
      3 C           6.3910    5.8619    3.1662 C.ar    1  LIG1       -0.0321
      4 C           6.0639    6.9529    2.3460 C.ar    1  LIG1       -0.0574
      5 H           5.1528    7.1970    2.2335 H       1  LIG1        0.0621
      6 C           7.0502    7.6807    1.6964 C.ar    1  LIG1       -0.0615
      7 H           6.8072    8.4136    1.1421 H       1  LIG1        0.0618
      8 C           8.3874    7.3477    1.8503 C.ar    1  LIG1       -0.0617
      9 H           9.0608    7.8421    1.3978 H       1  LIG1        0.0618
     10 C           8.7274    6.2890    2.6694 C.ar    1  LIG1       -0.0615
     11 H           9.6410    6.0592    2.7875 H       1  LIG1        0.0618
     12 C           7.7446    5.5586    3.3220 C.ar    1  LIG1       -0.0574
     13 H           7.9978    4.8372    3.8858 H       1  LIG1        0.0621
     14 C           5.6840    3.7190    4.4229 C.ar    1  LIG1       -0.0321
     15 C           6.3596    2.8616    3.5548 C.ar    1  LIG1       -0.0574
     16 H           6.6611    3.1878    2.7150 H       1  LIG1        0.0621
     17 C           6.5995    1.5307    3.9016 C.ar    1  LIG1       -0.0615
     18 H           7.0606    0.9602    3.2976 H       1  LIG1        0.0618
     19 C           6.1701    1.0382    5.1184 C.ar    1  LIG1       -0.0617
     20 H           6.3369    0.1335    5.3547 H       1  LIG1        0.0618
     21 C           5.4984    1.8696    5.9850 C.ar    1  LIG1       -0.0615
     22 H           5.1984    1.5358    6.8223 H       1  LIG1        0.0618
     23 C           5.2552    3.1963    5.6425 C.ar    1  LIG1       -0.0574
     24 H           4.7884    3.7568    6.2506 H       1  LIG1        0.0621
     25 C           5.1424    6.0704    5.2377 C.ar    1  LIG1       -0.0321
     26 C           6.1523    6.0646    6.2064 C.ar    1  LIG1       -0.0574
     27 H           6.8823    5.4635    6.1138 H       1  LIG1        0.0621
     28 C           6.1109    6.9147    7.2957 C.ar    1  LIG1       -0.0615
     29 H           6.8059    6.8858    7.9425 H       1  LIG1        0.0618
     30 C           5.0636    7.8083    7.4509 C.ar    1  LIG1       -0.0617
     31 H           5.0358    8.3963    8.1969 H       1  LIG1        0.0618
     32 C           4.0589    7.8290    6.4994 C.ar    1  LIG1       -0.0615
     33 H           3.3314    8.4323    6.5980 H       1  LIG1        0.0618
     34 C           4.1011    6.9768    5.3990 C.ar    1  LIG1       -0.0574
     35 H           3.4086    7.0154    4.7502 H       1  LIG1        0.0621
     36 C           5.2955    5.1533    3.9966 C.3     1  LIG1        0.0524
     37 C           3.9565    5.0533    3.1904 C.3     1  LIG1        0.0237
     38 H           3.6436    5.9870    3.0159 H       1  LIG1        0.0360
     39 C           4.0791    4.3561    1.8380 C.3     1  LIG1        0.0570
     40 H           4.7396    4.8345    1.2761 H       1  LIG1        0.0565
     41 H           4.4021    3.4296    1.9696 H       1  LIG1        0.0565
     42 C           2.8429    4.3344    3.9520 C.3     1  LIG1        0.0570
     43 H           3.1104    3.3988    4.1306 H       1  LIG1        0.0565
     44 H           2.6884    4.7838    4.8213 H       1  LIG1        0.0565
     45 C           1.8367    3.6665    1.9516 C.3     1  LIG1        0.1589
     46 H           2.1415    2.7324    2.1378 H       1  LIG1        0.0909
     47 C           0.5354    3.6304    1.1958 C.3     1  LIG1       -0.0044
     48 H           0.6827    3.2119    0.3105 H       1  LIG1        0.0311
     49 H           0.2175    4.5567    1.0463 H       1  LIG1        0.0311
     50 C          -0.5286    2.8476    1.9536 C.3     1  LIG1       -0.0607
     51 H          -1.3624    2.8460    1.4375 H       1  LIG1        0.0231
     52 H          -0.6847    3.2680    2.8258 H       1  LIG1        0.0231
     53 H          -0.2243    1.9258    2.0858 H       1  LIG1        0.0231
@<TRIPOS>BOND
     1    48    47    1
     2    49    47    1
     3     7     6    1
     4     1    39    1
     5     1    45    1
     6    47    45    1
     7    47    50    1
     8    40    39    1
     9     9     8    1
    10    51    50    1
    11     6     8   ar
    12     6     4   ar
    13    39    41    1
    14    39    37    1
    15     8    10   ar
    16    45    46    1
    17    45     2    1
    18    50    53    1
    19    50    52    1
    20     5     4    1
    21     4     3   ar
    22    10    11    1
    23    10    12   ar
    24    16    15    1
    25    38    37    1
    26     3    12   ar
    27     3    36    1
    28     2    42    1
    29    37    42    1
    30    37    36    1
    31    18    17    1
    32    12    13    1
    33    15    17   ar
    34    15    14   ar
    35    17    19   ar
    36    42    43    1
    37    42    44    1
    38    36    14    1
    39    36    25    1
    40    14    23   ar
    41    35    34    1
    42    19    20    1
    43    19    21   ar
    44    25    34   ar
    45    25    26   ar
    46    34    32   ar
    47    23    21   ar
    48    23    24    1
    49    21    22    1
    50    27    26    1
    51    26    28   ar
    52    32    33    1
    53    32    30   ar
    54    28    30   ar
    55    28    29    1
    56    30    31    1
