@<TRIPOS>MOLECULE
2,3:4,5-Di-<i>O</i>-isopropylidenefructos-1-yl <i>p</i>-toluenesulfonate
 108 114 0 0 0
SMALL
GASTEIGER

@<TRIPOS>ATOM
      1 S           3.3183    1.9034    0.3040 S.O2    1  LIG1        0.1121
      2 O           1.9490   -2.7267    2.7221 O.3     1  LIG1       -0.3378
      3 O           2.0269   -2.2470    0.5099 O.3     1  LIG1       -0.3130
      4 O           2.9035    0.4483    0.7543 O.3     1  LIG1       -0.2288
      5 O           6.2858   -3.2672    2.5367 O.3     1  LIG1       -0.3410
      6 C           3.2972   -1.9199    1.0155 C.3     1  LIG1        0.2279
      7 O           5.2425   -1.5108    3.4662 O.3     1  LIG1       -0.3406
      8 C           3.1010   -1.9098    2.5385 C.3     1  LIG1        0.1466
      9 H           2.9126   -0.9970    2.8429 H       1  LIG1        0.0679
     10 C           4.7085    2.2804    1.3050 C.ar    1  LIG1        0.1171
     11 C           3.8039   -0.6305    0.4010 C.3     1  LIG1        0.1334
     12 H           4.6962   -0.4366    0.7295 H       1  LIG1        0.0639
     13 H           3.8490   -0.7209   -0.5641 H       1  LIG1        0.0639
     14 C           5.9794    2.2895    0.7840 C.ar    1  LIG1       -0.0341
     15 H           6.1254    2.0651   -0.1068 H       1  LIG1        0.0637
     16 C           4.2269   -2.4976    3.3503 C.3     1  LIG1        0.1215
     17 H           3.9005   -2.7464    4.2403 H       1  LIG1        0.0652
     18 C           0.1588   -1.4204    1.7629 C.3     1  LIG1       -0.0107
     19 H           0.6502   -0.6153    1.9404 H       1  LIG1        0.0281
     20 H          -0.4289   -1.6052    2.4999 H       1  LIG1        0.0281
     21 H          -0.3587   -1.3087    0.9612 H       1  LIG1        0.0281
     22 O           2.2118    2.7073    0.6990 O.2     1  LIG1       -0.1419
     23 O           3.7291    1.8631   -1.0508 O.2     1  LIG1       -0.1419
     24 C           1.1148   -2.5646    1.5863 C.3     1  LIG1        0.1686
     25 C           4.9282   -3.6937    2.7000 C.3     1  LIG1        0.1140
     26 H           4.8862   -4.4754    3.2881 H       1  LIG1        0.0647
     27 C           4.4950    2.5992    2.6328 C.ar    1  LIG1       -0.0341
     28 H           3.6350    2.5880    2.9858 H       1  LIG1        0.0637
     29 C           6.8460    2.9748    2.9121 C.ar    1  LIG1       -0.0503
     30 C           5.5591    2.9302    3.4205 C.ar    1  LIG1       -0.0570
     31 H           5.4169    3.1302    4.3170 H       1  LIG1        0.0621
     32 C           7.5183   -1.2630    2.8218 C.3     1  LIG1       -0.0108
     33 H           7.2187   -0.9777    1.9554 H       1  LIG1        0.0281
     34 H           8.3561   -1.7230    2.7346 H       1  LIG1        0.0281
     35 H           7.6306   -0.4985    3.3904 H       1  LIG1        0.0281
     36 C           0.4271   -3.8713    1.3071 C.3     1  LIG1       -0.0107
     37 H           1.0845   -4.5628    1.2018 H       1  LIG1        0.0281
     38 H          -0.0896   -3.7962    0.5024 H       1  LIG1        0.0281
     39 H          -0.1524   -4.0906    2.0397 H       1  LIG1        0.0281
     40 C           7.0339    2.6367    1.6035 C.ar    1  LIG1       -0.0570
     41 H           7.8967    2.6408    1.2545 H       1  LIG1        0.0621
     42 C           6.4985   -2.1890    3.4235 C.3     1  LIG1        0.1656
     43 C           6.8867   -2.6905    4.8044 C.3     1  LIG1       -0.0108
     44 H           6.2082   -3.2845    5.1308 H       1  LIG1        0.0281
     45 H           6.9765   -1.9443    5.4015 H       1  LIG1        0.0281
     46 H           7.7242   -3.1586    4.7502 H       1  LIG1        0.0281
     47 C           8.0038    3.4114    3.7755 C.3     1  LIG1       -0.0397
     48 H           8.8159    3.3769    3.2641 H       1  LIG1        0.0278
     49 H           8.0772    2.8246    4.5321 H       1  LIG1        0.0278
     50 H           7.8550    4.3099    4.0793 H       1  LIG1        0.0278
     51 S           1.1731    4.0898    5.6109 S.O2    2  LIG2        0.1121
     52 O          -1.1755    8.8060    5.1071 O.3     2  LIG2       -0.3378
     53 O          -1.5778    7.1811    6.6486 O.3     2  LIG2       -0.3130
     54 O           2.3440    8.9492    5.8120 O.3     2  LIG2       -0.3406
     55 C           1.0282    9.4809    5.7087 C.3     2  LIG2        0.1215
     56 H           0.9709   10.0961    4.9473 H       2  LIG2        0.0652
     57 O           0.0279    8.1794    7.9741 O.3     2  LIG2       -0.3418
     58 O           0.3580    5.4177    5.7879 O.3     2  LIG2       -0.2288
     59 O           1.3676    3.5131    6.8913 O.2     2  LIG2       -0.1419
     60 C          -0.0154    3.1901    4.6955 C.ar    2  LIG2        0.1171
     61 C          -0.1939    9.5915    7.9129 C.3     2  LIG2        0.0799
     62 H          -0.1352    9.9682    8.8055 H       2  LIG2        0.0588
     63 H          -1.0830    9.7662    7.5690 H       2  LIG2        0.0588
     64 O           2.0956   10.2038    7.6537 O.3     2  LIG2       -0.3410
     65 C           3.0627    9.7885    6.7071 C.3     2  LIG2        0.1656
     66 C           0.6407    6.2624    6.9237 C.3     2  LIG2        0.1334
     67 H           1.5830    6.4939    6.9448 H       2  LIG2        0.0639
     68 H           0.4177    5.8045    7.7480 H       2  LIG2        0.0639
     69 C          -2.1300    7.8066    5.4716 C.3     2  LIG2        0.1686
     70 C           0.0988    8.3102    5.5041 C.3     2  LIG2        0.1466
     71 H           0.4566    7.7193    4.8089 H       2  LIG2        0.0679
     72 C          -0.1989    7.5021    6.7699 C.3     2  LIG2        0.2279
     73 C          -2.0801    2.0215    4.5975 C.ar    2  LIG2       -0.0570
     74 H          -2.8546    1.7250    5.0164 H       2  LIG2        0.0621
     75 C           0.8233   10.2454    7.0260 C.3     2  LIG2        0.1140
     76 H           0.5654   11.1734    6.8425 H       2  LIG2        0.0647
     77 C          -1.8795    1.7148    3.2742 C.ar    2  LIG2       -0.0503
     78 C          -2.3140    6.7802    4.3894 C.3     2  LIG2       -0.0107
     79 H          -1.4697    6.3680    4.1937 H       2  LIG2        0.0281
     80 H          -2.6534    7.2066    3.5995 H       2  LIG2        0.0281
     81 H          -2.9362    6.1121    4.6855 H       2  LIG2        0.0281
     82 C          -0.7243    2.1788    2.6695 C.ar    2  LIG2       -0.0570
     83 H          -0.5735    1.9849    1.7719 H       2  LIG2        0.0621
     84 C          -3.4076    8.5153    5.8498 C.3     2  LIG2       -0.0107
     85 H          -3.2254    9.1580    6.5402 H       2  LIG2        0.0281
     86 H          -4.0460    7.8747    6.1717 H       2  LIG2        0.0281
     87 H          -3.7646    8.9651    5.0811 H       2  LIG2        0.0281
     88 C           3.6514   10.9561    5.9671 C.3     2  LIG2       -0.0108
     89 H           2.9498   11.4485    5.5354 H       2  LIG2        0.0281
     90 H           4.2709   10.6373    5.3083 H       2  LIG2        0.0281
     91 H           4.1088   11.5287    6.5868 H       2  LIG2        0.0281
     92 C           0.2002    2.9159    3.3593 C.ar    2  LIG2       -0.0341
     93 H           0.9657    3.2287    2.9332 H       2  LIG2        0.0637
     94 C          -1.1763    2.7474    5.3144 C.ar    2  LIG2       -0.0341
     95 H          -1.3360    2.9454    6.2093 H       2  LIG2        0.0637
     96 C           4.0926    8.9509    7.4201 C.3     2  LIG2       -0.0108
     97 H           3.6587    8.2148    7.8593 H       2  LIG2        0.0281
     98 H           4.5474    9.4890    8.0714 H       2  LIG2        0.0281
     99 H           4.7275    8.6138    6.7839 H       2  LIG2        0.0281
    100 O           2.3190    4.3414    4.8108 O.2     2  LIG2       -0.1419
    101 C          -2.8696    0.8721    2.4984 C.3     2  LIG2       -0.0397
    102 H          -2.5605    0.7635    1.5959 H       2  LIG2        0.0278
    103 H          -3.7249    1.3077    2.4924 H       2  LIG2        0.0278
    104 H          -2.9526    0.0102    2.9151 H       2  LIG2        0.0278
    105 O           4.2555   -2.8470    0.5602 O.3     1  LIG1       -0.3418
    106 C           4.3790   -4.0257    1.3563 C.3     1  LIG1        0.0799
    107 H           4.9653   -4.6572    0.9130 H       1  LIG1        0.0588
    108 H           3.5083   -4.4430    1.4560 H       1  LIG1        0.0588
@<TRIPOS>BOND
     1    23     1    2
     2    13    11    1
     3    15    14    1
     4     1    22    2
     5     1     4    1
     6     1    10    1
     7    11    12    1
     8    11     4    1
     9    11     6    1
    10    38    36    1
    11     3     6    1
    12     3    24    1
    13   105     6    1
    14   105   106    1
    15    14    10   ar
    16    14    40   ar
    17   107   106    1
    18    21    18    1
    19     6     8    1
    20    37    36    1
    21    41    40    1
    22    10    27   ar
    23    36    24    1
    24    36    39    1
    25   106   108    1
    26   106    25    1
    27    24    18    1
    28    24     2    1
    29   102   101    1
    30    40    29   ar
    31    18    19    1
    32    18    20    1
    33    83    82    1
    34    33    32    1
    35   103   101    1
    36   101   104    1
    37   101    77    1
    38     5    25    1
    39     5    42    1
    40     8     2    1
    41     8     9    1
    42     8    16    1
    43    27    28    1
    44    27    30   ar
    45    82    77   ar
    46    82    92   ar
    47    25    26    1
    48    25    16    1
    49    34    32    1
    50    32    35    1
    51    32    42    1
    52    29    30   ar
    53    29    47    1
    54    93    92    1
    55    48    47    1
    56    77    73   ar
    57    16     7    1
    58    16    17    1
    59    92    60   ar
    60    30    31    1
    61    42     7    1
    62    42    43    1
    63    80    78    1
    64    47    50    1
    65    47    49    1
    66    79    78    1
    67    78    81    1
    68    78    69    1
    69    73    74    1
    70    73    94   ar
    71    60    94   ar
    72    60    51    1
    73    46    43    1
    74    43    44    1
    75    43    45    1
    76    71    70    1
    77   100    51    2
    78    56    55    1
    79    87    84    1
    80    52    69    1
    81    52    70    1
    82    90    88    1
    83    94    95    1
    84    69    84    1
    85    69    53    1
    86    70    55    1
    87    70    72    1
    88    89    88    1
    89    51    58    1
    90    51    59    2
    91    55    54    1
    92    55    75    1
    93    58    66    1
    94    54    65    1
    95    84    86    1
    96    84    85    1
    97    88    91    1
    98    88    65    1
    99    53    72    1
   100    65    96    1
   101    65    64    1
   102    72    66    1
   103    72    57    1
   104    99    96    1
   105    76    75    1
   106    66    67    1
   107    66    68    1
   108    75    64    1
   109    75    61    1
   110    96    97    1
   111    96    98    1
   112    63    61    1
   113    61    57    1
   114    61    62    1
