@<TRIPOS>MOLECULE
4,4'-(1,8-Naphthalene-1,8-diyl)dibenzonitrile
 40 43 0 0 0
SMALL
GASTEIGER

@<TRIPOS>ATOM
      1 N          10.6007    2.2535   18.5371 N.1     1  LIG1       -0.1909
      2 N           9.0844    7.0124   18.9338 N.1     1  LIG1       -0.1909
      3 C          10.2473    4.0117   11.9130 C.ar    1  LIG1       -0.0096
      4 C          10.5496    2.9554   11.0803 C.ar    1  LIG1       -0.0534
      5 H          10.7783    2.1189   11.4681 H       1  LIG1        0.0624
      6 C          10.5316    3.0704    9.6762 C.ar    1  LIG1       -0.0606
      7 H          10.7472    2.3239    9.1292 H       1  LIG1        0.0618
      8 C          10.2005    4.2655    9.1144 C.ar    1  LIG1       -0.0540
      9 H          10.1838    4.3474    8.1689 H       1  LIG1        0.0624
     10 C           9.5499    6.6152    9.2802 C.ar    1  LIG1       -0.0540
     11 H           9.5442    6.6638    8.3318 H       1  LIG1        0.0624
     12 C           9.2432    7.7215   10.0101 C.ar    1  LIG1       -0.0606
     13 H           9.0276    8.5387    9.5766 H       1  LIG1        0.0618
     14 C           9.2471    7.6424   11.4163 C.ar    1  LIG1       -0.0534
     15 H           9.0431    8.4225   11.9178 H       1  LIG1        0.0624
     16 C           9.5368    6.4734   12.0929 C.ar    1  LIG1       -0.0096
     17 C           9.8874    5.2883   11.3511 C.ar    1  LIG1       -0.0025
     18 C           9.8793    5.3902    9.9150 C.ar    1  LIG1       -0.0167
     19 C          10.3149    3.7086   13.3746 C.ar    1  LIG1       -0.0172
     20 C          11.3006    4.2644   14.1939 C.ar    1  LIG1       -0.0528
     21 H          11.9273    4.8769   13.8263 H       1  LIG1        0.0624
     22 C          11.3758    3.9327   15.5382 C.ar    1  LIG1       -0.0438
     23 H          12.0383    4.3258   16.0947 H       1  LIG1        0.0631
     24 C          10.4669    3.0144   16.0645 C.ar    1  LIG1        0.0518
     25 C           9.4844    2.4419   15.2583 C.ar    1  LIG1       -0.0438
     26 H           8.8656    1.8210   15.6254 H       1  LIG1        0.0631
     27 C           9.4179    2.7860   13.9170 C.ar    1  LIG1       -0.0528
     28 H           8.7560    2.3903   13.3620 H       1  LIG1        0.0624
     29 C           9.4443    6.5510   13.5856 C.ar    1  LIG1       -0.0172
     30 C          10.3379    7.3614   14.2875 C.ar    1  LIG1       -0.0528
     31 H          11.0071    7.8416   13.8142 H       1  LIG1        0.0624
     32 C          10.2614    7.4755   15.6673 C.ar    1  LIG1       -0.0438
     33 H          10.8854    8.0142   16.1384 H       1  LIG1        0.0631
     34 C           9.2617    6.7940   16.3567 C.ar    1  LIG1        0.0518
     35 C           8.3419    6.0010   15.6655 C.ar    1  LIG1       -0.0438
     36 H           7.6544    5.5442   16.1360 H       1  LIG1        0.0631
     37 C           8.4377    5.8856   14.2909 C.ar    1  LIG1       -0.0528
     38 H           7.8113    5.3475   13.8215 H       1  LIG1        0.0624
     39 C          10.5473    2.6130   17.4462 C.1     1  LIG1        0.0992
     40 C           9.1695    6.9111   17.7921 C.1     1  LIG1        0.0992
@<TRIPOS>BOND
     1     9     8    1
     2    11    10    1
     3     8     6   ar
     4     8    18   ar
     5     7     6    1
     6    10    18   ar
     7    10    12   ar
     8    13    12    1
     9     6     4   ar
    10    18    17   ar
    11    12    14   ar
    12     4     5    1
    13     4     3   ar
    14    17     3   ar
    15    17    16   ar
    16    14    15    1
    17    14    16   ar
    18     3    19    1
    19    16    29    1
    20    28    27    1
    21    19    27   ar
    22    19    20   ar
    23    29    30   ar
    24    29    37   ar
    25    31    30    1
    26    38    37    1
    27    21    20    1
    28    27    25   ar
    29    20    22   ar
    30    30    32   ar
    31    37    35   ar
    32    25    26    1
    33    25    24   ar
    34    22    24   ar
    35    22    23    1
    36    35    36    1
    37    35    34   ar
    38    32    33    1
    39    32    34   ar
    40    24    39    1
    41    34    40    1
    42    39     1    3
    43    40     2    3
