@<TRIPOS>MOLECULE
[2-(2-Chlorophenyl)-2-hydroxyethyl](isopropyl)ammonium 4-hydroxybenzoate
 46 46 0 0 0
SMALL
GASTEIGER

@<TRIPOS>ATOM
      1 CL          5.4865    2.4747    3.2486 Cl      1  LIG1       -0.0832
      2 O           2.8723    5.0732    9.3175 O.co2   2  LIG2       -0.2406
      3 O           4.4100    5.7554   10.7622 O.co2   2  LIG2       -0.2406
      4 O           5.6070   -0.4803   10.8210 O.3     2  LIG2       -0.5068
      5 H           6.1810   -0.5100   11.4062 H       2  LIG2        0.2921
      6 O           5.3334    4.5362    7.0873 O.3     1  LIG1       -0.3818
      7 H           5.2146    5.3180    6.8703 H       1  LIG1        0.2105
      8 N           2.5407    4.3380    6.6267 N.4     1  LIG1        0.2308
      9 H           2.7774    5.0287    6.1006 H       1  LIG1        0.2017
     10 H           2.6618    4.5947    7.4801 H       1  LIG1        0.2017
     11 C           6.0606    1.8801   10.8736 C.ar    2  LIG2       -0.0194
     12 H           6.9371    1.7249   11.1433 H       2  LIG2        0.0654
     13 C           4.3080    3.4343   10.2852 C.ar    2  LIG2        0.0634
     14 C           5.7684    2.4689    5.9592 C.ar    1  LIG1        0.0042
     15 C           4.8705    3.6859    6.0553 C.3     1  LIG1        0.1210
     16 H           4.8816    4.1693    5.2026 H       1  LIG1        0.0698
     17 C           3.4600    3.1974    6.3453 C.3     1  LIG1       -0.0025
     18 H           3.1293    2.6982    5.5827 H       1  LIG1        0.0843
     19 H           3.4765    2.6014    7.1095 H       1  LIG1        0.0843
     20 C           3.8267    4.8434   10.1026 C.2     2  LIG2        0.3865
     21 C           5.6058    3.1778   10.7046 C.ar    2  LIG2       -0.0442
     22 H           6.1798    3.8886   10.8756 H       2  LIG2        0.0627
     23 C           5.2066    0.8128   10.6401 C.ar    2  LIG2        0.1169
     24 C           6.1061    1.8532    4.7642 C.ar    1  LIG1        0.0468
     25 C           6.2320    1.8776    7.1332 C.ar    1  LIG1       -0.0545
     26 H           6.0197    2.2630    7.9520 H       1  LIG1        0.0622
     27 C           1.0719    4.0628    6.4169 C.3     1  LIG1       -0.0283
     28 H           0.9466    3.7476    5.4972 H       1  LIG1        0.0845
     29 C           3.4754    2.3499   10.0199 C.ar    2  LIG2       -0.0442
     30 H           2.6077    2.4996    9.7211 H       2  LIG2        0.0627
     31 C           3.9230    1.0499   10.1946 C.ar    2  LIG2       -0.0194
     32 H           3.3560    0.3359   10.0109 H       2  LIG2        0.0654
     33 C           6.9986    0.7314    7.1042 C.ar    1  LIG1       -0.0613
     34 H           7.2825    0.3433    7.8997 H       1  LIG1        0.0618
     35 C           6.9036    0.7190    4.7201 C.ar    1  LIG1       -0.0430
     36 H           7.1362    0.3384    3.9039 H       1  LIG1        0.0632
     37 C           7.3460    0.1626    5.9042 C.ar    1  LIG1       -0.0604
     38 H           7.8789   -0.5995    5.8884 H       1  LIG1        0.0618
     39 C           0.6021    2.9863    7.3524 C.3     1  LIG1       -0.0219
     40 H           1.1145    2.1870    7.2045 H       1  LIG1        0.0284
     41 H          -0.3264    2.8049    7.1902 H       1  LIG1        0.0284
     42 H           0.7179    3.2769    8.2593 H       1  LIG1        0.0284
     43 C           0.3168    5.3597    6.5789 C.3     1  LIG1       -0.0219
     44 H           0.6574    6.0082    5.9565 H       1  LIG1        0.0284
     45 H           0.4301    5.6870    7.4737 H       1  LIG1        0.0284
     46 H          -0.6155    5.2113    6.4079 H       1  LIG1        0.0284
@<TRIPOS>BOND
     1     1    24    1
     2    36    35    1
     3    35    24   ar
     4    35    37   ar
     5    24    14   ar
     6    16    15    1
     7    28    27    1
     8    18    17    1
     9    38    37    1
    10    37    33   ar
    11    44    43    1
    12    14    15    1
    13    14    25   ar
    14    15    17    1
    15    15     6    1
    16     9     8    1
    17    17     8    1
    18    17    19    1
    19    46    43    1
    20    27    43    1
    21    27     8    1
    22    27    39    1
    23    43    45    1
    24     8    10    1
    25     7     6    1
    26    33    25   ar
    27    33    34    1
    28    25    26    1
    29    41    39    1
    30    40    39    1
    31    39    42    1
    32     2    20   ar
    33    30    29    1
    34    32    31    1
    35    29    31   ar
    36    29    13   ar
    37    20    13    1
    38    20     3   ar
    39    31    23   ar
    40    13    21   ar
    41    23     4    1
    42    23    11   ar
    43    21    11   ar
    44    21    22    1
    45     4     5    1
    46    11    12    1
