@<TRIPOS>MOLECULE
4-Bromo-<i>N</i>-phenylaniline
 24 25 0 0 0
SMALL
GASTEIGER

@<TRIPOS>ATOM
      1 BR          2.2594   10.5654    1.9832 Br      1  LIG1       -0.0503
      2 N          -0.4386   12.2079    7.1790 N.pl3   1  LIG1       -0.3145
      3 H          -0.1411   12.9118    7.5448 H       1  LIG1        0.1522
      4 C           1.4220   11.0609    3.6127 C.ar    1  LIG1        0.0180
      5 C           2.1169   11.8182    4.5438 C.ar    1  LIG1       -0.0460
      6 H           3.0094   12.0916    4.3694 H       1  LIG1        0.0629
      7 C           1.4956   12.1719    5.7319 C.ar    1  LIG1       -0.0395
      8 H           1.9718   12.6899    6.3700 H       1  LIG1        0.0636
      9 C           0.1807   11.7806    6.0108 C.ar    1  LIG1        0.0314
     10 C          -0.5058   11.0172    5.0473 C.ar    1  LIG1       -0.0395
     11 H          -1.3997   10.7442    5.2129 H       1  LIG1        0.0636
     12 C           0.1168   10.6595    3.8512 C.ar    1  LIG1       -0.0460
     13 H          -0.3511   10.1441    3.2042 H       1  LIG1        0.0629
     14 C          -1.3632   11.4823    7.9438 C.ar    1  LIG1        0.0313
     15 C          -1.4658   10.0886    7.8672 C.ar    1  LIG1       -0.0405
     16 H          -0.9295    9.6080    7.2474 H       1  LIG1        0.0636
     17 C          -2.3433    9.4074    8.6894 C.ar    1  LIG1       -0.0600
     18 H          -2.4044    8.4611    8.6276 H       1  LIG1        0.0618
     19 C          -3.1474   10.0926    9.6154 C.ar    1  LIG1       -0.0616
     20 H          -3.7445    9.6204   10.1837 H       1  LIG1        0.0618
     21 C          -3.0442   11.4738    9.6780 C.ar    1  LIG1       -0.0600
     22 H          -3.5800   11.9532   10.3000 H       1  LIG1        0.0618
     23 C          -2.1768   12.1726    8.8536 C.ar    1  LIG1       -0.0405
     24 H          -2.1332   13.1195    8.9051 H       1  LIG1        0.0636
@<TRIPOS>BOND
     1     1     4    1
     2    13    12    1
     3     4    12   ar
     4     4     5   ar
     5    12    10   ar
     6     6     5    1
     7     5     7   ar
     8    10    11    1
     9    10     9   ar
    10     7     9   ar
    11     7     8    1
    12     9     2    1
    13     2     3    1
    14     2    14    1
    15    16    15    1
    16    15    14   ar
    17    15    17   ar
    18    14    23   ar
    19    18    17    1
    20    17    19   ar
    21    23    24    1
    22    23    21   ar
    23    19    21   ar
    24    19    20    1
    25    21    22    1
