@<TRIPOS>MOLECULE
5-Chloro-<i>N</i>-(4,5-dihydro-1<i>H</i>-imidazol-2-yl)-2,1,3-benzothiadiazol- 4-amine
 48 52 0 0 0
SMALL
GASTEIGER

@<TRIPOS>ATOM
      1 CL          1.2061    1.8196    9.1711 Cl      1  LIG1       -0.0816
      2 S           4.7993    6.7296    7.3836 S.2     1  LIG1        0.1165
      3 N           3.2142    6.9484    7.2540 N.ar    1  LIG1       -0.1907
      4 N           4.8678    5.2444    8.0049 N.ar    1  LIG1       -0.1889
      5 N           4.1563    2.6537    9.0429 N.pl3   1  LIG1       -0.3061
      6 N           3.8863    1.1692    7.1777 N.3     1  LIG1       -0.2771
      7 N           5.1966    0.5961    8.8607 N.3     1  LIG1       -0.1959
      8 C           1.8344    3.3429    8.6318 C.ar    1  LIG1        0.0641
      9 C           0.8764    4.3201    8.2388 C.ar    1  LIG1       -0.0394
     10 C           1.2605    5.5342    7.7641 C.ar    1  LIG1       -0.0320
     11 C           2.6458    5.8157    7.7043 C.ar    1  LIG1        0.1018
     12 C           3.6006    4.8357    8.1328 C.ar    1  LIG1        0.1221
     13 C           3.1927    3.5395    8.5920 C.ar    1  LIG1        0.0766
     14 C           4.3687    1.5526    8.4062 C.3     1  LIG1        0.2064
     15 C           4.1915   -0.2371    6.9769 C.3     1  LIG1        0.0134
     16 C           5.3980   -0.4329    7.8803 C.3     1  LIG1        0.0303
     17 CL          5.7261    0.3629   14.4435 Cl      2  LIG2       -0.0816
     18 S           8.5902   -2.4701    9.5321 S.2     2  LIG2        0.1165
     19 N           8.5721   -3.3115   10.9102 N.ar    2  LIG2       -0.1907
     20 N           7.8307   -1.1188    9.9837 N.ar    2  LIG2       -0.1889
     21 N           6.4226    0.8584   11.4354 N.pl3   2  LIG2       -0.3061
     22 N           7.5050    2.4800   12.8478 N.3     2  LIG2       -0.2771
     23 N           6.0346    3.1353   11.3354 N.3     2  LIG2       -0.1959
     24 C           6.6085   -0.6840   13.3679 C.ar    2  LIG2        0.0641
     25 C           7.0107   -1.9476   13.8970 C.ar    2  LIG2       -0.0394
     26 C           7.6735   -2.8610   13.1581 C.ar    2  LIG2       -0.0320
     27 C           7.9493   -2.5354   11.8120 C.ar    2  LIG2        0.1018
     28 C           7.5295   -1.2725   11.2788 C.ar    2  LIG2        0.1221
     29 C           6.8562   -0.2818   12.0721 C.ar    2  LIG2        0.0766
     30 C           6.6399    2.0566   11.8787 C.3     2  LIG2        0.2064
     31 C           7.2007    3.8684   13.1800 C.3     2  LIG2        0.0134
     32 C           6.6123    4.3637   11.8642 C.3     2  LIG2        0.0303
     33 H           4.4113   -0.4215    6.0496 H       1  LIG1        0.0438
     34 H           3.4519   -0.8010    7.2486 H       1  LIG1        0.0438
     35 H          -0.0301    4.1234    8.3082 H       1  LIG1        0.0633
     36 H           5.3982   -1.3132    8.2854 H       1  LIG1        0.0454
     37 H           0.6318    6.1608    7.4869 H       1  LIG1        0.0640
     38 H           6.2287   -0.3031    7.3957 H       1  LIG1        0.0454
     39 H           4.7535    2.9156    9.6885 H       1  LIG1        0.1494
     40 H           3.1414    1.5012    6.8950 H       1  LIG1        0.1254
     41 H           6.8079   -2.1478   14.7824 H       2  LIG2        0.0633
     42 H           7.9382   -3.6750   13.5213 H       2  LIG2        0.0640
     43 H           8.0011    4.3604   13.4199 H       2  LIG2        0.0438
     44 H           6.5577    3.9293   13.9028 H       2  LIG2        0.0438
     45 H           5.9352    5.0420   12.0105 H       2  LIG2        0.0454
     46 H           7.2999    4.7157   11.2766 H       2  LIG2        0.0454
     47 H           6.0678    0.7602   10.6353 H       2  LIG2        0.1494
     48 H           7.7469    1.9450   13.4453 H       2  LIG2        0.1254
@<TRIPOS>BOND
     1    33    15    1
     2    40     6    1
     3    15     6    1
     4    15    34    1
     5    15    16    1
     6     6    14    1
     7     3     2   ar
     8     3    11   ar
     9     2     4   ar
    10    38    16    1
    11    37    10    1
    12    11    10   ar
    13    11    12   ar
    14    10     9   ar
    15    16    36    1
    16    16     7    1
    17     4    12   ar
    18    12    13   ar
    19     9    35    1
    20     9     8   ar
    21    14     7    1
    22    14     5    1
    23    13     8   ar
    24    13     5    1
    25     8     1    1
    26     5    39    1
    27    18    20   ar
    28    18    19   ar
    29    20    28   ar
    30    47    21    1
    31    19    27   ar
    32    46    32    1
    33    28    27   ar
    34    28    29   ar
    35    23    32    1
    36    23    30    1
    37    21    30    1
    38    21    29    1
    39    27    26   ar
    40    32    45    1
    41    32    31    1
    42    30    22    1
    43    29    24   ar
    44    22    31    1
    45    22    48    1
    46    26    42    1
    47    26    25   ar
    48    31    43    1
    49    31    44    1
    50    24    25   ar
    51    24    17    1
    52    25    41    1
