@<TRIPOS>MOLECULE
[1-(Carboxymethyl)cyclohexyl]methanaminium nitrate
 34 33 0 0 0
SMALL
GASTEIGER

@<TRIPOS>ATOM
      1 C           4.3610    1.0283    4.2827 C.3     1  LIG1        0.0207
      2 C           3.1635    0.4169    5.0145 C.3     1  LIG1       -0.0420
      3 H           3.4741    0.0359    5.8741 H       1  LIG1        0.0273
      4 H           2.5144    1.1351    5.2216 H       1  LIG1        0.0273
      5 C           2.4547   -0.6725    4.2219 C.3     1  LIG1       -0.0524
      6 H           1.6725   -0.9971    4.7340 H       1  LIG1        0.0265
      7 H           3.0703   -1.4354    4.0850 H       1  LIG1        0.0265
      8 C           1.9921   -0.1438    2.8686 C.3     1  LIG1       -0.0530
      9 H           1.3054    0.5565    3.0063 H       1  LIG1        0.0265
     10 H           1.5785   -0.8800    2.3513 H       1  LIG1        0.0265
     11 C           3.1626    0.4406    2.0761 C.3     1  LIG1       -0.0524
     12 H           3.7953   -0.2852    1.8421 H       1  LIG1        0.0265
     13 H           2.8250    0.8360    1.2341 H       1  LIG1        0.0265
     14 C           3.8942    1.5110    2.8829 C.3     1  LIG1       -0.0420
     15 H           3.2951    2.2899    2.9979 H       1  LIG1        0.0273
     16 H           4.6855    1.8134    2.3694 H       1  LIG1        0.0273
     17 C           4.8580    2.2964    5.0276 C.3     1  LIG1        0.0552
     18 H           5.7097    2.5856    4.6148 H       1  LIG1        0.0385
     19 H           4.1983    3.0204    4.8821 H       1  LIG1        0.0385
     20 C           5.0787    2.1494    6.5085 C.2     1  LIG1        0.3054
     21 C           5.5005    0.0220    4.0625 C.3     1  LIG1       -0.0291
     22 H           5.2201   -0.6238    3.3675 H       1  LIG1        0.0819
     23 H           6.2893    0.5102    3.7154 H       1  LIG1        0.0819
     24 N           5.9059   -0.7322    5.2742 N.4     1  LIG1        0.2189
     25 H           6.6424   -1.2325    5.0879 H       1  LIG1        0.1994
     26 H           5.2258   -1.2789    5.5334 H       1  LIG1        0.1994
     27 H           6.0980   -0.1484    5.9452 H       1  LIG1        0.1994
     28 O           5.8961    1.4100    7.0151 O.2     1  LIG1       -0.2510
     29 O           4.3030    2.9364    7.2177 O.3     1  LIG1       -0.4806
     30 H           4.4599    2.8221    8.0352 H       1  LIG1        0.2951
     31 N           4.0144    3.1821   10.5725 N.pl3   2  LIG2        0.2601
     32 O           3.2370    4.0195   10.1204 O.2     2  LIG2       -0.0867
     33 O           4.1574    3.0244   11.7975 O.2     2  LIG2       -0.0867
     34 O           4.6920    2.4543    9.7896 O.2     2  LIG2       -0.0867
@<TRIPOS>BOND
     1    13    11    1
     2    12    11    1
     3    11     8    1
     4    11    14    1
     5    10     8    1
     6    16    14    1
     7     8     9    1
     8     8     5    1
     9    14    15    1
    10    14     1    1
    11    22    21    1
    12    23    21    1
    13    21     1    1
    14    21    24    1
    15     7     5    1
    16     5     6    1
    17     5     2    1
    18     1     2    1
    19     1    17    1
    20    18    17    1
    21    19    17    1
    22     2     4    1
    23     2     3    1
    24    17    20    1
    25    25    24    1
    26    24    26    1
    27    24    27    1
    28    20    28    2
    29    20    29    1
    30    29    30    1
    31    34    31    2
    32    32    31    2
    33    31    33    1
