@<TRIPOS>MOLECULE
2,5-Dichloroanilinium 4-chlorobenzenesulfonate
 28 28 0 0 0
SMALL
GASTEIGER

@<TRIPOS>ATOM
      1 CL          8.4484    5.1015    1.4330 Cl      1  LIG1       -0.0835
      2 S           2.2079    5.1015    1.2100 S.3     1  LIG1        0.0033
      3 O           1.8060    3.9173    1.9224 O.3     1  LIG1       -0.0735
      4 O           1.8281    5.1015   -0.1697 O.3     1  LIG1       -0.0735
      5 C           3.9730    5.1015    1.2433 C.ar    1  LIG1        0.0868
      6 C           4.6167    5.1015    2.4486 C.ar    1  LIG1       -0.0357
      7 H           4.1204    5.1015    3.2352 H       1  LIG1        0.0637
      8 C           5.9928    5.1015    2.5094 C.ar    1  LIG1       -0.0416
      9 H           6.4280    5.1015    3.3317 H       1  LIG1        0.0633
     10 C           6.7063    5.1015    1.3572 C.ar    1  LIG1        0.0411
     11 C           6.0909    5.1015    0.1410 C.ar    1  LIG1       -0.0416
     12 H           6.5928    5.1015   -0.6423 H       1  LIG1        0.0633
     13 C           4.7043    5.1015    0.0890 C.ar    1  LIG1       -0.0357
     14 H           4.2721    5.1015   -0.7345 H       1  LIG1        0.0637
     15 CL         -2.7813    5.1015    6.3958 Cl      2  LIG2       -0.0816
     16 CL          3.4084    5.1015    6.2850 Cl      2  LIG2       -0.0835
     17 N          -1.0233    5.1015    8.8343 N.pl3   2  LIG2       -0.3568
     18 H          -1.5740    5.7953    8.8658 H       2  LIG2        0.1424
     19 H          -0.4435    5.1015    9.5037 H       2  LIG2        0.1424
     20 C          -0.3355    5.1015    7.5541 C.ar    2  LIG2        0.0445
     21 C          -1.0564    5.1015    6.3738 C.ar    2  LIG2        0.0616
     22 C          -0.3852    5.1015    5.1717 C.ar    2  LIG2       -0.0402
     23 H          -0.8664    5.1015    4.3754 H       2  LIG2        0.0633
     24 C           0.9805    5.1015    5.1359 C.ar    2  LIG2       -0.0419
     25 H           1.4308    5.1015    4.3222 H       2  LIG2        0.0633
     26 C           1.6789    5.1015    6.3163 C.ar    2  LIG2        0.0428
     27 C           1.0381    5.1015    7.5303 C.ar    2  LIG2       -0.0213
     28 H           1.5245    5.1015    8.3233 H       2  LIG2        0.0651
@<TRIPOS>BOND
     1    14    13    1
     2    12    11    1
     3     4     2    1
     4    13    11   ar
     5    13     5   ar
     6    11    10   ar
     7     2     5    1
     8     2     3    1
     9     5     6   ar
    10    10     1    1
    11    10     8   ar
    12     6     8   ar
    13     6     7    1
    14     8     9    1
    15    25    24    1
    16    23    22    1
    17    24    22   ar
    18    24    26   ar
    19    22    21   ar
    20    16    26    1
    21    26    27   ar
    22    21    15    1
    23    21    20   ar
    24    27    20   ar
    25    27    28    1
    26    20    17    1
    27    17    18    1
    28    17    19    1
