@<TRIPOS>MOLECULE
Benzyl 5-hydroxy-4-oxapentacyclo[5.4.1.0^2,6^.0^3,10^.0^8,11^]dodecane-3-carboxylate
 41 47 0 0 0
SMALL
GASTEIGER

@<TRIPOS>ATOM
      1 O           4.7731    5.9845    1.0034 O.3     1  LIG1       -0.3640
      2 H           4.5269    5.7790    0.0896 H       1  LIG1        0.2128
      3 O           2.8109    7.0901    1.6443 O.3     1  LIG1       -0.3300
      4 O           0.0674    7.8530    3.7444 O.2     1  LIG1       -0.2475
      5 O           0.5390    8.4333    1.6211 O.3     1  LIG1       -0.4579
      6 C           3.1597    4.3317    5.0617 C.3     1  LIG1       -0.0460
      7 H           3.6791    4.7947    5.7667 H       1  LIG1        0.0271
      8 H           2.9028    3.4261    5.3660 H       1  LIG1        0.0271
      9 C           1.4678    4.3420    3.3540 C.3     1  LIG1       -0.0279
     10 H           0.7199    3.6957    3.5046 H       1  LIG1        0.0310
     11 C           1.3464    5.2998    2.1451 C.3     1  LIG1        0.0103
     12 H           0.5209    5.2436    1.5841 H       1  LIG1        0.0341
     13 C           1.8192    6.7119    2.6110 C.3     1  LIG1        0.1755
     14 C           2.6050    6.3815    3.8964 C.3     1  LIG1        0.0101
     15 H           2.7356    7.1631    4.5072 H       1  LIG1        0.0341
     16 C           1.9596    5.1552    4.5721 C.3     1  LIG1       -0.0309
     17 H           1.2659    5.3585    5.2629 H       1  LIG1        0.0308
     18 C           2.8076    3.7700    2.7555 C.3     1  LIG1       -0.0262
     19 H           2.8346    2.7915    2.5528 H       1  LIG1        0.0311
     20 C           2.6685    4.7370    1.5549 C.3     1  LIG1        0.0229
     21 H           2.6344    4.3381    0.6391 H       1  LIG1        0.0359
     22 C           3.6528    5.8922    1.7931 C.3     1  LIG1        0.1755
     23 C           3.9323    5.8088    3.2984 C.3     1  LIG1        0.0226
     24 H           4.7588    6.2898    3.5926 H       1  LIG1        0.0359
     25 C           3.8811    4.3184    3.7067 C.3     1  LIG1       -0.0292
     26 H           4.7577    3.8376    3.6906 H       1  LIG1        0.0308
     27 C           0.7273    7.7282    2.7403 C.2     1  LIG1        0.3404
     28 C          -0.5699    9.3608    1.6595 C.3     1  LIG1        0.1176
     29 H          -0.5321    9.8952    2.4920 H       1  LIG1        0.0749
     30 H          -1.4252    8.8620    1.6500 H       1  LIG1        0.0749
     31 C          -0.4976   10.2719    0.4663 C.ar    1  LIG1       -0.0103
     32 C           0.6170   10.3476   -0.3591 C.ar    1  LIG1       -0.0554
     33 H           1.3725    9.7985   -0.1877 H       1  LIG1        0.0621
     34 C           0.6272   11.2290   -1.4375 C.ar    1  LIG1       -0.0614
     35 H           1.3868   11.2703   -2.0068 H       1  LIG1        0.0618
     36 C          -0.4621   12.0453   -1.6845 C.ar    1  LIG1       -0.0617
     37 H          -0.4472   12.6505   -2.4159 H       1  LIG1        0.0618
     38 C          -1.5709   11.9782   -0.8653 C.ar    1  LIG1       -0.0614
     39 H          -2.3178   12.5409   -1.0313 H       1  LIG1        0.0618
     40 C          -1.5949   11.0909    0.1997 C.ar    1  LIG1       -0.0554
     41 H          -2.3660   11.0407    0.7523 H       1  LIG1        0.0621
@<TRIPOS>BOND
     1    37    36    1
     2    35    34    1
     3    36    34   ar
     4    36    38   ar
     5    34    32   ar
     6    39    38    1
     7    38    40   ar
     8    32    33    1
     9    32    31   ar
    10     2     1    1
    11    40    31   ar
    12    40    41    1
    13    31    28    1
    14    21    20    1
    15     1    22    1
    16    20    22    1
    17    20    11    1
    18    20    18    1
    19    12    11    1
    20     5    28    1
    21     5    27    1
    22     3    22    1
    23     3    13    1
    24    30    28    1
    25    28    29    1
    26    22    23    1
    27    11    13    1
    28    11     9    1
    29    19    18    1
    30    13    27    1
    31    13    14    1
    32    27     4    2
    33    18     9    1
    34    18    25    1
    35    23    24    1
    36    23    25    1
    37    23    14    1
    38     9    10    1
    39     9    16    1
    40    26    25    1
    41    25     6    1
    42    14    15    1
    43    14    16    1
    44    16     6    1
    45    16    17    1
    46     6     8    1
    47     6     7    1
