@<TRIPOS>MOLECULE
1-Dibenzylamino-1-deoxy-4,5-<i>O</i>-isopropylidene-\b-<i>D</i>-\ fructopyranose
 58 61 0 0 0
SMALL
GASTEIGER

@<TRIPOS>ATOM
      1 N           3.7785   -0.5521   -0.5421 N.3     1  LIG1       -0.2888
      2 O           2.2265    1.9808    0.2394 O.3     1  LIG1       -0.3428
      3 O           3.7159    0.8552    1.6525 O.3     1  LIG1       -0.3616
      4 H           4.3106    0.8787    1.0888 H       1  LIG1        0.2129
      5 O           1.5324   -0.4007    2.9144 O.3     1  LIG1       -0.3837
      6 H           2.3185   -0.6332    2.9387 H       1  LIG1        0.2101
      7 O           0.2528    3.6284    1.9006 O.3     1  LIG1       -0.3410
      8 O           0.2159    2.1917    3.6676 O.3     1  LIG1       -0.3406
      9 C           2.4384    3.1980    0.9493 C.3     1  LIG1        0.0799
     10 H           2.2269    3.9431    0.3657 H       1  LIG1        0.0588
     11 H           3.3762    3.2646    1.1881 H       1  LIG1        0.0588
     12 C           1.6098    3.3048    2.1971 C.3     1  LIG1        0.1140
     13 H           1.9896    3.9916    2.7832 H       1  LIG1        0.0647
     14 C           1.4449    2.0091    2.9747 C.3     1  LIG1        0.1211
     15 H           2.1736    1.9262    3.6238 H       1  LIG1        0.0652
     16 C           1.4058    0.7653    2.1048 C.3     1  LIG1        0.1385
     17 H           0.5305    0.7333    1.6663 H       1  LIG1        0.0675
     18 C           2.4742    0.8054    1.0166 C.3     1  LIG1        0.2094
     19 C           2.4468   -0.3696    0.0477 C.3     1  LIG1        0.0562
     20 H           2.1828   -1.1758    0.5179 H       1  LIG1        0.0480
     21 H           1.7980   -0.2017   -0.6536 H       1  LIG1        0.0480
     22 C           4.0399   -1.9491   -0.9144 C.3     1  LIG1        0.0246
     23 H           4.8802   -1.9888   -1.3966 H       1  LIG1        0.0476
     24 H           3.3412   -2.2436   -1.5190 H       1  LIG1        0.0476
     25 C           4.1065   -2.9062    0.2437 C.ar    1  LIG1       -0.0333
     26 C           4.6570   -2.5757    1.4515 C.ar    1  LIG1       -0.0573
     27 H           4.9893   -1.7167    1.5819 H       1  LIG1        0.0621
     28 C           4.7286   -3.5038    2.4897 C.ar    1  LIG1       -0.0615
     29 H           5.0917   -3.2583    3.3094 H       1  LIG1        0.0618
     30 C           4.2648   -4.7741    2.3000 C.ar    1  LIG1       -0.0617
     31 H           4.3181   -5.3972    2.9884 H       1  LIG1        0.0618
     32 C           3.7301   -5.1195    1.1186 C.ar    1  LIG1       -0.0615
     33 H           3.4195   -5.9866    0.9895 H       1  LIG1        0.0618
     34 C           3.6377   -4.1922    0.0841 C.ar    1  LIG1       -0.0573
     35 H           3.2554   -4.4435   -0.7248 H       1  LIG1        0.0621
     36 C           3.9883    0.3224   -1.7126 C.3     1  LIG1        0.0246
     37 H           3.5844    1.1867   -1.5372 H       1  LIG1        0.0476
     38 H           3.5377   -0.0641   -2.4804 H       1  LIG1        0.0476
     39 C           5.4423    0.5199   -2.0459 C.ar    1  LIG1       -0.0333
     40 C           5.9529    0.1983   -3.2813 C.ar    1  LIG1       -0.0573
     41 H           5.3924   -0.1751   -3.9233 H       1  LIG1        0.0621
     42 C           7.2795    0.4181   -3.5882 C.ar    1  LIG1       -0.0615
     43 H           7.6093    0.1829   -4.4247 H       1  LIG1        0.0618
     44 C           8.1131    0.9850   -2.6565 C.ar    1  LIG1       -0.0617
     45 H           9.0059    1.1398   -2.8643 H       1  LIG1        0.0618
     46 C           7.6276    1.3232   -1.4199 C.ar    1  LIG1       -0.0615
     47 H           8.1881    1.7105   -0.7876 H       1  LIG1        0.0618
     48 C           6.3101    1.0866   -1.1214 C.ar    1  LIG1       -0.0573
     49 H           5.9895    1.3118   -0.2780 H       1  LIG1        0.0621
     50 C          -0.5047    3.2869    3.0609 C.3     1  LIG1        0.1656
     51 C          -0.5580    4.4222    4.0540 C.3     1  LIG1       -0.0108
     52 H           0.3348    4.6827    4.2890 H       1  LIG1        0.0281
     53 H          -1.0260    4.1370    4.8417 H       1  LIG1        0.0281
     54 H          -1.0168    5.1689    3.6619 H       1  LIG1        0.0281
     55 C          -1.8580    2.8252    2.6225 C.3     1  LIG1       -0.0108
     56 H          -1.7630    2.1045    1.9972 H       1  LIG1        0.0281
     57 H          -2.3243    3.5538    2.2041 H       1  LIG1        0.0281
     58 H          -2.3560    2.5235    3.3855 H       1  LIG1        0.0281
@<TRIPOS>BOND
     1    43    42    1
     2    41    40    1
     3    42    40   ar
     4    42    44   ar
     5    40    39   ar
     6    45    44    1
     7    44    46   ar
     8    38    36    1
     9    39    36    1
    10    39    48   ar
    11    36    37    1
    12    36     1    1
    13    24    22    1
    14    46    48   ar
    15    46    47    1
    16    23    22    1
    17    48    49    1
    18    22     1    1
    19    22    25    1
    20    35    34    1
    21    21    19    1
    22     1    19    1
    23    19    20    1
    24    19    18    1
    25    34    25   ar
    26    34    32   ar
    27     2     9    1
    28     2    18    1
    29    25    26   ar
    30    10     9    1
    31     9    11    1
    32     9    12    1
    33    33    32    1
    34    18     3    1
    35    18    16    1
    36     4     3    1
    37    32    30   ar
    38    26    27    1
    39    26    28   ar
    40    17    16    1
    41     7    12    1
    42     7    50    1
    43    56    55    1
    44    16     5    1
    45    16    14    1
    46    12    13    1
    47    12    14    1
    48    57    55    1
    49    30    28   ar
    50    30    31    1
    51    28    29    1
    52    55    50    1
    53    55    58    1
    54     5     6    1
    55    14    15    1
    56    14     8    1
    57    50     8    1
    58    50    51    1
    59    54    51    1
    60    51    52    1
    61    51    53    1
