@<TRIPOS>MOLECULE
5-Cyclohexyl-3-(4-fluorophenylsulfinyl)-2-methyl-1-benzofuran
 46 49 0 0 0
SMALL
GASTEIGER

@<TRIPOS>ATOM
      1 S           6.2253    5.3415    7.0361 S.3     1  LIG1        0.0238
      2 F           9.8790    1.2835    9.1824 F       1  LIG1       -0.2055
      3 O           2.9726    3.3847    6.0476 O.2     1  LIG1       -0.4588
      4 O           6.9273    6.0146    5.9136 O.3     1  LIG1       -0.1519
      5 C           5.0072    4.2769    6.3624 C.ar    1  LIG1        0.0794
      6 C           5.1124    3.3317    5.2672 C.ar    1  LIG1        0.0358
      7 C           6.1272    2.8806    4.4214 C.ar    1  LIG1       -0.0464
      8 H           7.0103    3.2210    4.5009 H       1  LIG1        0.0628
      9 C           5.8213    1.9205    3.4573 C.ar    1  LIG1       -0.0435
     10 C           4.5042    1.4467    3.3540 C.ar    1  LIG1       -0.0548
     11 H           4.3070    0.7950    2.6912 H       1  LIG1        0.0622
     12 C           3.4835    1.8856    4.1727 C.ar    1  LIG1       -0.0185
     13 H           2.5954    1.5605    4.0879 H       1  LIG1        0.0654
     14 C           3.8306    2.8243    5.1199 C.ar    1  LIG1        0.1363
     15 C           3.7163    4.2707    6.7789 C.ar    1  LIG1        0.1183
     16 C           6.8973    1.3970    2.5322 C.3     1  LIG1       -0.0158
     17 H           6.4750    0.7228    1.9258 H       1  LIG1        0.0349
     18 C           8.0214    0.6910    3.2999 C.3     1  LIG1       -0.0462
     19 H           8.4380    1.3283    3.9320 H       1  LIG1        0.0271
     20 H           7.6404   -0.0563    3.8258 H       1  LIG1        0.0271
     21 C           9.0853    0.1512    2.3499 C.3     1  LIG1       -0.0525
     22 H           9.8123   -0.2697    2.8748 H       1  LIG1        0.0265
     23 H           8.6852   -0.5434    1.7680 H       1  LIG1        0.0265
     24 C           9.6618    1.2574    1.4901 C.3     1  LIG1       -0.0530
     25 H          10.3083    0.8705    0.8478 H       1  LIG1        0.0265
     26 H          10.1477    1.8999    2.0648 H       1  LIG1        0.0265
     27 C           8.5711    1.9895    0.7270 C.3     1  LIG1       -0.0525
     28 H           8.1696    1.3751    0.0625 H       1  LIG1        0.0265
     29 H           8.9710    2.7497    0.2363 H       1  LIG1        0.0265
     30 C           7.4759    2.5109    1.6560 C.3     1  LIG1       -0.0462
     31 H           6.7504    2.9098    1.1138 H       1  LIG1        0.0271
     32 H           7.8494    3.2210    2.2355 H       1  LIG1        0.0271
     33 C           2.9817    5.0089    7.8322 C.3     1  LIG1       -0.0052
     34 H           3.5681    5.6897    8.2234 H       1  LIG1        0.0308
     35 H           2.6952    4.3831    8.5302 H       1  LIG1        0.0308
     36 H           2.1947    5.4419    7.4392 H       1  LIG1        0.0308
     37 C           7.3380    4.0842    7.6725 C.ar    1  LIG1        0.0314
     38 C           7.0636    3.5089    8.8985 C.ar    1  LIG1       -0.0439
     39 H           6.2870    3.7665    9.3819 H       1  LIG1        0.0630
     40 C           7.9218    2.5564    9.4205 C.ar    1  LIG1       -0.0254
     41 H           7.7508    2.1491   10.2614 H       1  LIG1        0.0646
     42 C           9.0301    2.2196    8.6824 C.ar    1  LIG1        0.1235
     43 C           9.3267    2.7823    7.4677 C.ar    1  LIG1       -0.0254
     44 H          10.1010    2.5168    6.9846 H       1  LIG1        0.0646
     45 C           8.4716    3.7487    6.9599 C.ar    1  LIG1       -0.0439
     46 H           8.6625    4.1742    6.1328 H       1  LIG1        0.0630
@<TRIPOS>BOND
     1    28    27    1
     2    29    27    1
     3    27    24    1
     4    27    30    1
     5    25    24    1
     6    31    30    1
     7    24    26    1
     8    24    21    1
     9    30    32    1
    10    30    16    1
    11    23    21    1
    12    17    16    1
    13    21    22    1
    14    21    18    1
    15    16    18    1
    16    16     9    1
    17    11    10    1
    18    18    20    1
    19    18    19    1
    20    10     9   ar
    21    10    12   ar
    22     9     7   ar
    23    13    12    1
    24    12    14   ar
    25     7     8    1
    26     7     6   ar
    27    14     6   ar
    28    14     3   ar
    29     6     5   ar
    30     4     1    1
    31     3    15   ar
    32    46    45    1
    33     5    15   ar
    34     5     1    1
    35    15    33    1
    36    45    43   ar
    37    45    37   ar
    38    44    43    1
    39     1    37    1
    40    36    33    1
    41    43    42   ar
    42    37    38   ar
    43    33    34    1
    44    33    35    1
    45    42     2    1
    46    42    40   ar
    47    38    39    1
    48    38    40   ar
    49    40    41    1
