@<TRIPOS>MOLECULE
2-Methyl-<i>N</i>-(4-nitrobenzoyl)benzenesulfonamide
 34 35 0 0 0
SMALL
GASTEIGER

@<TRIPOS>ATOM
      1 C           8.0457    0.5670    1.5910 C.ar    1  LIG1        0.1115
      2 C           7.5304    1.6619    0.8714 C.ar    1  LIG1       -0.0238
      3 C           6.2440    2.0599    1.2336 C.ar    1  LIG1       -0.0570
      4 H           5.8475    2.7660    0.7758 H       1  LIG1        0.0621
      5 C           5.5468    1.4485    2.2353 C.ar    1  LIG1       -0.0614
      6 H           4.7069    1.7716    2.4696 H       1  LIG1        0.0618
      7 C           6.0662    0.3600    2.9047 C.ar    1  LIG1       -0.0599
      8 H           5.5717   -0.0802    3.5586 H       1  LIG1        0.0618
      9 C           7.3367   -0.0562    2.5784 C.ar    1  LIG1       -0.0348
     10 H           7.7177   -0.7703    3.0362 H       1  LIG1        0.0637
     11 C          10.5848    1.3768    3.4414 C.2     1  LIG1        0.2630
     12 C          11.4893    2.4498    4.0020 C.ar    1  LIG1        0.0383
     13 C          11.1206    2.9692    5.2177 C.ar    1  LIG1       -0.0474
     14 H          10.3700    2.6381    5.6564 H       1  LIG1        0.0626
     15 C          11.8699    3.9936    5.7951 C.ar    1  LIG1       -0.0308
     16 H          11.6179    4.3755    6.6055 H       1  LIG1        0.0640
     17 C          12.9881    4.4188    5.1304 C.ar    1  LIG1        0.1262
     18 C          13.3845    3.9069    3.9363 C.ar    1  LIG1       -0.0308
     19 H          14.1465    4.2268    3.5095 H       1  LIG1        0.0640
     20 C          12.6164    2.8853    3.3673 C.ar    1  LIG1       -0.0474
     21 H          12.8737    2.5039    2.5581 H       1  LIG1        0.0626
     22 C           8.2243    2.3648   -0.2295 C.3     1  LIG1       -0.0378
     23 H           8.1979    1.8229   -1.0220 H       1  LIG1        0.0278
     24 H           9.1374    2.5253    0.0179 H       1  LIG1        0.0278
     25 H           7.7861    3.2019   -0.4004 H       1  LIG1        0.0278
     26 N          10.6753    1.1436    2.0835 N.am    1  LIG1       -0.1815
     27 H          11.0590    1.5940    1.4464 H       1  LIG1        0.1769
     28 N          13.7738    5.5293    5.7174 N.pl3   1  LIG1        0.0564
     29 O           9.8564   -1.2164    2.0213 O.2     1  LIG1       -0.1499
     30 O          10.0536    0.1011   -0.0347 O.2     1  LIG1       -0.1499
     31 O           9.8180    0.7740    4.1455 O.2     1  LIG1       -0.2686
     32 O          13.4893    5.8780    6.8517 O.2     1  LIG1       -0.1261
     33 O          14.6605    6.0224    5.0432 O.2     1  LIG1       -0.1261
     34 S           9.7083    0.0139    1.3487 S.O2    1  LIG1        0.0749
@<TRIPOS>BOND
     1    23    22    1
     2    25    22    1
     3    22    24    1
     4    22     2    1
     5    30    34    2
     6     4     3    1
     7     2     3   ar
     8     2     1   ar
     9     3     5   ar
    10    34     1    1
    11    34    29    2
    12    34    26    1
    13    27    26    1
    14     1     9   ar
    15    26    11   am
    16     5     6    1
    17     5     7   ar
    18    21    20    1
    19     9     7   ar
    20     9    10    1
    21     7     8    1
    22    20    18   ar
    23    20    12   ar
    24    11    12    1
    25    11    31    2
    26    19    18    1
    27    18    17   ar
    28    12    13   ar
    29    33    28    2
    30    17    28    1
    31    17    15   ar
    32    13    14    1
    33    13    15   ar
    34    28    32    2
    35    15    16    1
