@<TRIPOS>MOLECULE
1,3-Dimethyl-4-phenylsulfanyl-1<i>H</i>-pyrazol-5-ol
 27 28 0 0 0
SMALL
GASTEIGER

@<TRIPOS>ATOM
      1 S           1.0345    3.6233    1.6494 S.3     1  LIG1       -0.0823
      2 O           3.5784    3.9090   -0.4492 O.2     1  LIG1       -0.2650
      3 N           2.2159    7.0267    0.1499 N.ar    1  LIG1       -0.2981
      4 N           3.0844    6.1698   -0.4951 N.ar    1  LIG1       -0.2543
      5 C           3.1472    4.1004    3.4198 C.ar    1  LIG1       -0.0480
      6 H           3.3468    4.8622    2.9252 H       1  LIG1        0.0629
      7 C           3.9043    3.7790    4.5395 C.ar    1  LIG1       -0.0607
      8 H           4.6102    4.3300    4.7896 H       1  LIG1        0.0618
      9 C           3.6200    2.6469    5.2877 C.ar    1  LIG1       -0.0617
     10 H           4.1230    2.4441    6.0437 H       1  LIG1        0.0618
     11 C           2.5762    1.8204    4.8971 C.ar    1  LIG1       -0.0607
     12 H           2.3866    1.0541    5.3874 H       1  LIG1        0.0618
     13 C           1.8120    2.1285    3.7792 C.ar    1  LIG1       -0.0480
     14 H           1.1156    1.5682    3.5230 H       1  LIG1        0.0629
     15 C           2.0902    3.2797    3.0419 C.ar    1  LIG1        0.0129
     16 C           1.7985    4.9745    0.8731 C.ar    1  LIG1        0.0988
     17 C           2.8816    4.8878   -0.0539 C.ar    1  LIG1        0.2808
     18 C           1.4390    6.3179    0.9710 C.ar    1  LIG1        0.0487
     19 C           4.1791    6.6572   -1.3104 C.3     1  LIG1        0.0319
     20 H           4.5664    5.9254   -1.7970 H       1  LIG1        0.0473
     21 H           4.8466    7.0544   -0.7450 H       1  LIG1        0.0473
     22 H           3.8504    7.3143   -1.9283 H       1  LIG1        0.0473
     23 C           0.4032    6.9618    1.8220 C.3     1  LIG1       -0.0218
     24 H           0.2168    7.8430    1.4883 H       1  LIG1        0.0293
     25 H           0.7237    7.0227    2.7247 H       1  LIG1        0.0293
     26 H          -0.3996    6.4360    1.8023 H       1  LIG1        0.0293
     27 H           2.1710    7.9429   -0.0639 H       1  LIG1        0.1867
@<TRIPOS>BOND
     1    22    19    1
     2    20    19    1
     3    19    21    1
     4    19     4    1
     5     4    17   ar
     6     4     3   ar
     7     2    17    2
     8    27     3    1
     9    17    16   ar
    10     3    18   ar
    11    16    18   ar
    12    16     1    1
    13    18    23    1
    14    24    23    1
    15     1    15    1
    16    26    23    1
    17    23    25    1
    18     6     5    1
    19    15     5   ar
    20    15    13   ar
    21     5     7   ar
    22    14    13    1
    23    13    11   ar
    24     7     8    1
    25     7     9   ar
    26    11     9   ar
    27    11    12    1
    28     9    10    1
