@<TRIPOS>MOLECULE
6-(4-Bromophenyl)-2-(4-fluorobenzyl)imidazo[2,1-<i>b</i>][1,3,4]thiadiazole
 34 37 0 0 0
SMALL
GASTEIGER

@<TRIPOS>ATOM
      1 C           1.7322    3.5606    9.5694 C.3     1  LIG1        0.0231
      2 H           1.9718    2.7405   10.0288 H       1  LIG1        0.0382
      3 H           0.9093    3.3949    9.0846 H       1  LIG1        0.0382
      4 C           2.8053    3.8870    8.5887 C.ar    1  LIG1        0.1066
      5 C           4.2436    4.9138    6.9309 C.ar    1  LIG1        0.1959
      6 C           5.5173    3.1657    6.4911 C.ar    1  LIG1        0.0579
      7 H           5.8956    2.3165    6.4875 H       1  LIG1        0.0853
      8 C           6.9648    4.3296    4.7648 C.ar    1  LIG1        0.0020
      9 C           5.8846    4.2493    5.7358 C.ar    1  LIG1        0.0920
     10 C           7.8862    3.2893    4.6077 C.ar    1  LIG1       -0.0515
     11 H           7.8033    2.5327    5.1424 H       1  LIG1        0.0624
     12 C           8.9049    3.3421    3.6970 C.ar    1  LIG1       -0.0471
     13 H           9.5068    2.6366    3.6214 H       1  LIG1        0.0629
     14 C           9.0299    4.4627    2.8894 C.ar    1  LIG1        0.0179
     15 C           8.1504    5.5092    3.0117 C.ar    1  LIG1       -0.0471
     16 H           8.2439    6.2635    2.4755 H       1  LIG1        0.0629
     17 C           7.1209    5.4367    3.9373 C.ar    1  LIG1       -0.0515
     18 H           6.5212    6.1444    4.0069 H       1  LIG1        0.0624
     19 C           1.4794    4.6312   10.5953 C.ar    1  LIG1       -0.0408
     20 C           0.4649    5.5693   10.4315 C.ar    1  LIG1       -0.0555
     21 H          -0.0680    5.5243    9.6718 H       1  LIG1        0.0621
     22 C           0.2233    6.5595   11.3529 C.ar    1  LIG1       -0.0262
     23 H          -0.4593    7.1791   11.2290 H       1  LIG1        0.0646
     24 C           1.0332    6.5989   12.4681 C.ar    1  LIG1        0.1234
     25 C           2.0433    5.7046   12.6765 C.ar    1  LIG1       -0.0262
     26 H           2.5772    5.7608   13.4355 H       1  LIG1        0.0646
     27 C           2.2591    4.7160   11.7378 C.ar    1  LIG1       -0.0555
     28 H           2.9393    4.0959   11.8731 H       1  LIG1        0.0621
     29 N           3.6653    3.0186    8.1811 N.ar    1  LIG1       -0.1620
     30 N           4.4734    3.6123    7.2491 N.ar    1  LIG1       -0.2130
     31 N           5.0850    5.3552    6.0113 N.ar    1  LIG1       -0.2201
     32 S           2.9351    5.5006    7.8968 S.2     1  LIG1       -0.0325
     33 F           0.8176    7.5560   13.3977 F       1  LIG1       -0.2055
     34 BR         10.4252    4.5373    1.6164 Br      1  LIG1       -0.0503
@<TRIPOS>BOND
     1    34    14    1
     2    16    15    1
     3    14    15   ar
     4    14    12   ar
     5    15    17   ar
     6    13    12    1
     7    12    10   ar
     8    17    18    1
     9    17     8   ar
    10    10     8   ar
    11    10    11    1
    12     8     9    1
    13     9    31   ar
    14     9     6   ar
    15    31     5   ar
    16     7     6    1
    17     6    30   ar
    18     5    30   ar
    19     5    32   ar
    20    30    29   ar
    21    32     4   ar
    22    29     4   ar
    23     4     1    1
    24     3     1    1
    25     1     2    1
    26     1    19    1
    27    21    20    1
    28    20    19   ar
    29    20    22   ar
    30    19    27   ar
    31    23    22    1
    32    22    24   ar
    33    27    28    1
    34    27    25   ar
    35    24    25   ar
    36    24    33    1
    37    25    26    1
