@<TRIPOS>MOLECULE
12,12'-[2,2'-Oxybis(ethane-2,1-diyl)bis(oxy)]bis[(<i>R</i>~p~)- 4-bromo[2.2]paracyclophane]
 77 82 0 0 0
SMALL
GASTEIGER

@<TRIPOS>ATOM
      1 C           7.3623   11.6188    4.3905 C.ar    1  LIG1        0.0213
      2 C           6.2269   11.3195    3.6655 C.ar    1  LIG1       -0.0443
      3 H           5.9171   10.4433    3.6291 H       1  LIG1        0.0631
      4 BR          2.7097    8.2205    2.3053 Br      1  LIG1       -0.0500
      5 BR          8.3797   10.1764    5.1015 Br      1  LIG1       -0.0500
      6 O           7.1889   10.2164    0.8532 O.3     1  LIG1       -0.4894
      7 O           7.4570    6.7687    1.6742 O.3     1  LIG1       -0.3731
      8 O           5.6702    5.1574    3.3354 O.3     1  LIG1       -0.4894
      9 C           6.9136    7.8905    1.0255 C.3     1  LIG1        0.0819
     10 H           6.0207    8.0744    1.3556 H       1  LIG1        0.0594
     11 H           6.8658    7.7390    0.0678 H       1  LIG1        0.0594
     12 C           6.9995   13.9084    4.0513 C.ar    1  LIG1       -0.0573
     13 H           7.1933   14.7918    4.2674 H       1  LIG1        0.0621
     14 C           2.9851    7.8724    4.1575 C.ar    1  LIG1        0.0213
     15 C           7.8004   11.4253    1.0839 C.ar    1  LIG1        0.1240
     16 C           6.8596    5.5299    1.3279 C.3     1  LIG1        0.0819
     17 H           7.4473    4.8112    1.6126 H       1  LIG1        0.0594
     18 H           6.7826    5.4807    0.3615 H       1  LIG1        0.0594
     19 C           7.8287    9.0359    1.3282 C.3     1  LIG1        0.1128
     20 H           7.9854    9.0984    2.2848 H       1  LIG1        0.0720
     21 H           8.6819    8.9121    0.8840 H       1  LIG1        0.0720
     22 C           2.2098    7.3472    6.2923 C.ar    1  LIG1       -0.0573
     23 H           1.5063    7.2751    6.8967 H       1  LIG1        0.0621
     24 C           1.9337    7.4530    4.9381 C.ar    1  LIG1       -0.0331
     25 C           2.1452    4.7463    4.3264 C.ar    1  LIG1       -0.0436
     26 C           7.0526   12.5394    0.6939 C.ar    1  LIG1       -0.0054
     27 C           7.8650   12.9012    4.4625 C.ar    1  LIG1       -0.0331
     28 C           3.2648    4.8737    3.5280 C.ar    1  LIG1       -0.0165
     29 H           3.1621    4.9602    2.6067 H       1  LIG1        0.0657
     30 C           4.5321    4.8749    4.0716 C.ar    1  LIG1        0.1240
     31 C           4.5763    7.4494    5.9079 C.ar    1  LIG1       -0.0460
     32 C           4.2976    7.8496    4.6082 C.ar    1  LIG1       -0.0443
     33 H           4.9887    8.1020    4.0414 H       1  LIG1        0.0631
     34 C           5.8560   13.6247    3.3286 C.ar    1  LIG1       -0.0582
     35 H           5.2914   14.3146    3.0671 H       1  LIG1        0.0620
     36 C           9.4067   12.8435    2.1701 C.ar    1  LIG1       -0.0436
     37 C           5.5472   12.3195    2.9911 C.ar    1  LIG1       -0.0460
     38 C           4.7188    4.7475    5.4439 C.ar    1  LIG1       -0.0054
     39 C           2.3435    4.3461    5.6233 C.ar    1  LIG1       -0.0581
     40 H           1.6204    4.0624    6.1342 H       1  LIG1        0.0620
     41 C           5.5136    5.3112    1.9267 C.3     1  LIG1        0.1128
     42 H           4.9383    6.0684    1.7369 H       1  LIG1        0.0720
     43 H           5.1065    4.5155    1.5477 H       1  LIG1        0.0720
     44 C           7.6641   13.7630    0.8218 C.ar    1  LIG1       -0.0548
     45 H           7.2791   14.5033    0.4123 H       1  LIG1        0.0622
     46 C           8.8190   13.9264    1.5327 C.ar    1  LIG1       -0.0581
     47 H           9.2137   14.7665    1.5900 H       1  LIG1        0.0620
     48 C           8.9571   11.5611    1.8064 C.ar    1  LIG1       -0.0165
     49 H           9.4421   10.8087    2.0560 H       1  LIG1        0.0657
     50 C           3.5134    7.3472    6.7679 C.ar    1  LIG1       -0.0582
     51 H           3.6683    7.2763    7.6818 H       1  LIG1        0.0620
     52 C           9.3190   13.2413    4.6907 C.3     1  LIG1       -0.0226
     53 H           9.6527   12.7101    5.4309 H       1  LIG1        0.0317
     54 H           9.3872   14.1752    4.9424 H       1  LIG1        0.0317
     55 C           5.9419    5.3040    6.1226 C.3     1  LIG1       -0.0202
     56 H           6.7304    5.0360    5.6258 H       1  LIG1        0.0317
     57 H           6.0109    4.9254    7.0125 H       1  LIG1        0.0317
     58 C           5.5605   12.4048    0.4595 C.3     1  LIG1       -0.0202
     59 H           5.4091   11.7378   -0.2288 H       1  LIG1        0.0317
     60 H           5.2153   13.2497    0.1327 H       1  LIG1        0.0317
     61 C           0.6699    6.8352    4.3902 C.3     1  LIG1       -0.0226
     62 H           0.3443    7.3845    3.6602 H       1  LIG1        0.0317
     63 H          -0.0062    6.8364    5.0864 H       1  LIG1        0.0317
     64 C          10.2279   12.9865    3.4291 C.3     1  LIG1       -0.0235
     65 H          10.8474   13.7257    3.3269 H       1  LIG1        0.0316
     66 H          10.7474   12.1777    3.5670 H       1  LIG1        0.0316
     67 C           5.9109    6.8653    6.2305 C.3     1  LIG1       -0.0235
     68 H           6.1578    7.1237    7.1311 H       1  LIG1        0.0316
     69 H           6.5720    7.2366    5.6258 H       1  LIG1        0.0316
     70 C           3.6090    4.3593    6.1777 C.ar    1  LIG1       -0.0548
     71 H           3.7188    4.1021    7.0633 H       1  LIG1        0.0622
     72 C           4.7719   11.9986    1.7391 C.3     1  LIG1       -0.0235
     73 H           3.9241   12.4709    1.7567 H       1  LIG1        0.0316
     74 H           4.5834   11.0479    1.7115 H       1  LIG1        0.0316
     75 C           0.8620    5.3641    3.8711 C.3     1  LIG1       -0.0235
     76 H           0.1221    4.8208    4.1826 H       1  LIG1        0.0316
     77 H           0.8390    5.3665    2.9005 H       1  LIG1        0.0316
@<TRIPOS>BOND
     1    59    58    1
     2    11     9    1
     3    60    58    1
     4    18    16    1
     5    45    44    1
     6    58    26    1
     7    58    72    1
     8    26    44   ar
     9    26    15   ar
    10    44    46   ar
    11     6    15    1
    12     6    19    1
    13    21    19    1
    14     9    19    1
    15     9    10    1
    16     9     7    1
    17    15    48   ar
    18    16    17    1
    19    16     7    1
    20    16    41    1
    21    19    20    1
    22    46    47    1
    23    46    36   ar
    24    43    41    1
    25    74    72    1
    26    42    41    1
    27    72    73    1
    28    72    37    1
    29    48    49    1
    30    48    36   ar
    31    41     8    1
    32    36    64    1
    33     4    14    1
    34    29    28    1
    35    77    75    1
    36    37    34   ar
    37    37     2   ar
    38    35    34    1
    39    65    64    1
    40    34    12   ar
    41     8    30    1
    42    64    66    1
    43    64    52    1
    44    28    30   ar
    45    28    25   ar
    46     3     2    1
    47    62    61    1
    48     2     1   ar
    49    75    76    1
    50    75    25    1
    51    75    61    1
    52    33    32    1
    53    12    13    1
    54    12    27   ar
    55    30    38   ar
    56    14    32   ar
    57    14    24   ar
    58    25    39   ar
    59    61    24    1
    60    61    63    1
    61     1    27   ar
    62     1     5    1
    63    27    52    1
    64    32    31   ar
    65    52    54    1
    66    52    53    1
    67    24    22   ar
    68    38    55    1
    69    38    70   ar
    70    39    40    1
    71    39    70   ar
    72    69    67    1
    73    56    55    1
    74    31    67    1
    75    31    50   ar
    76    55    67    1
    77    55    57    1
    78    70    71    1
    79    67    68    1
    80    22    50   ar
    81    22    23    1
    82    50    51    1
