@<TRIPOS>MOLECULE
<i>N</i>-(2-Chloro-2,2-difluoroacetyl)-<i>N</i>',<i>N</i>''- diisopropylphosphoric triamide
 34 33 0 0 0
SMALL
GASTEIGER

@<TRIPOS>ATOM
      1 P          -1.1772    7.7619    0.3351 P.3     1  LIG1        0.3005
      2 CL          1.5561    6.1605   -3.3287 Cl      1  LIG1       -0.0379
      3 F           2.6324    6.0401   -1.0433 F       1  LIG1       -0.1774
      4 F           1.7034    4.2178   -1.7272 F       1  LIG1       -0.1774
      5 O          -0.6455    5.0902   -0.9541 O.2     1  LIG1       -0.2674
      6 O          -0.7250    9.0129    0.9766 O.2     1  LIG1       -0.2650
      7 N           0.1964    7.1519   -0.4677 N.am    1  LIG1       -0.2362
      8 H           0.9020    7.6714   -0.5495 H       1  LIG1        0.1587
      9 N          -2.3017    7.8191   -0.8383 N.3     1  LIG1       -0.2373
     10 H          -3.1053    7.8018   -0.5964 H       1  LIG1        0.1322
     11 N          -1.7826    6.7080    1.4046 N.3     1  LIG1       -0.2373
     12 H          -2.1135    5.9802    1.1054 H       1  LIG1        0.1322
     13 C           0.2474    5.9104   -0.9816 C.2     1  LIG1        0.3057
     14 C           1.5685    5.5453   -1.6834 C.3     1  LIG1        0.3981
     15 C          -2.0413    8.3268   -2.2011 C.3     1  LIG1        0.0105
     16 H          -1.2925    7.7925   -2.5933 H       1  LIG1        0.0459
     17 C          -3.2822    8.0928   -3.0480 C.3     1  LIG1       -0.0495
     18 H          -3.4980    7.1371   -3.0553 H       1  LIG1        0.0245
     19 H          -3.1145    8.3968   -3.9648 H       1  LIG1        0.0245
     20 H          -4.0349    8.5943   -2.6700 H       1  LIG1        0.0245
     21 C          -1.6239    9.7887   -2.1940 C.3     1  LIG1       -0.0495
     22 H          -0.7806    9.8850   -1.7045 H       1  LIG1        0.0245
     23 H          -2.3185   10.3246   -1.7568 H       1  LIG1        0.0245
     24 H          -1.5038   10.0983   -3.1158 H       1  LIG1        0.0245
     25 C          -1.2198    6.5634    2.7608 C.3     1  LIG1        0.0105
     26 H          -0.8332    7.4448    3.0327 H       1  LIG1        0.0459
     27 C          -2.3282    6.2127    3.7343 C.3     1  LIG1       -0.0495
     28 H          -3.0349    6.8902    3.6824 H       1  LIG1        0.0245
     29 H          -1.9675    6.1865    4.6452 H       1  LIG1        0.0245
     30 H          -2.6997    5.3357    3.5047 H       1  LIG1        0.0245
     31 C          -0.1111    5.5339    2.7882 C.3     1  LIG1       -0.0495
     32 H           0.6168    5.8217    2.1990 H       1  LIG1        0.0245
     33 H          -0.4594    4.6711    2.4805 H       1  LIG1        0.0245
     34 H           0.2267    5.4417    3.7041 H       1  LIG1        0.0245
@<TRIPOS>BOND
     1    19    17    1
     2     2    14    1
     3    24    21    1
     4    18    17    1
     5    17    20    1
     6    17    15    1
     7    16    15    1
     8    15    21    1
     9    15     9    1
    10    21    23    1
    11    21    22    1
    12     4    14    1
    13    14     3    1
    14    14    13    1
    15    13     5    2
    16    13     7   am
    17     9    10    1
    18     9     1    1
    19     8     7    1
    20     7     1    1
    21     1     6    2
    22     1    11    1
    23    12    11    1
    24    11    25    1
    25    32    31    1
    26    33    31    1
    27    25    31    1
    28    25    26    1
    29    25    27    1
    30    31    34    1
    31    30    27    1
    32    28    27    1
    33    27    29    1
