@<TRIPOS>MOLECULE
Tetramethylammonium hemi(terephthalate) dihydrate
 31 27 0 0 0
SMALL
GASTEIGER

@<TRIPOS>ATOM
      1 O           2.5989    0.8849    1.1549 O.co2   1  LIG1       -0.2409
      2 C           1.8961    1.9039    0.9575 C.2     1  LIG1        0.3829
      3 N           3.1371    7.8682    1.5555 N.4     2  LIG2        0.2347
      4 O           1.0242    5.0709   -0.7723 O.3     3  HOH3       -0.4105
      5 H           1.3360    4.3159   -0.4814 H       0  HOH0        0.2052
      6 H           0.2038    4.9708   -0.8882 H       0  HOH0        0.2052
      7 O           2.2660    2.9037    0.3202 O.co2   1  LIG1       -0.2409
      8 C           0.5098    1.9087    1.5684 C.2     1  LIG1        0.0450
      9 O           6.5410    5.8907    0.4366 O.3     4  HOH4       -0.4105
     10 H           7.1769    5.4485    0.0669 H       0  HOH0        0.2052
     11 H           6.7890    6.0063    1.2486 H       0  HOH0        0.2052
     12 C          -0.1315    0.7234    1.8751 C.3     1  LIG1        0.0062
     13 H           0.2974   -0.0858    1.7137 H       1  LIG1        0.0363
     14 C          -0.1360    3.0965    1.8542 C.2     1  LIG1       -0.0509
     15 H           0.2769    3.9048    1.6537 H       1  LIG1        0.0623
     16 C           2.8386    6.6607    2.3616 C.3     2  LIG2       -0.0421
     17 H           3.6456    6.1565    2.4929 H       2  LIG2        0.0778
     18 H           2.1931    6.1192    1.9000 H       2  LIG2        0.0778
     19 H           2.4828    6.9244    3.2138 H       2  LIG2        0.0778
     20 C           3.6779    7.4931    0.2214 C.3     2  LIG2       -0.0421
     21 H           4.4923    6.9989    0.3338 H       2  LIG2        0.0778
     22 H           3.8542    8.2873   -0.2875 H       2  LIG2        0.0778
     23 H           3.0362    6.9503   -0.2429 H       2  LIG2        0.0778
     24 C           4.1434    8.7018    2.2672 C.3     2  LIG2       -0.0421
     25 H           4.9530    8.1981    2.3831 H       2  LIG2        0.0778
     26 H           3.7980    8.9570    3.1254 H       2  LIG2        0.0778
     27 H           4.3299    9.4900    1.7506 H       2  LIG2        0.0778
     28 C           1.8876    8.6499    1.3610 C.3     2  LIG2       -0.0421
     29 H           1.5323    8.9028    2.2166 H       2  LIG2        0.0778
     30 H           1.2438    8.1134    0.8933 H       2  LIG2        0.0778
     31 H           2.0794    9.4380    0.8487 H       2  LIG2        0.0778
@<TRIPOS>BOND
     1     6     4    1
     2     4     5    1
     3    22    20    1
     4    23    20    1
     5    10     9    1
     6    20    21    1
     7    20     3    1
     8     7     2   ar
     9     9    11    1
    10    31    28    1
    11    30    28    1
    12     2     1   ar
    13     2     8    1
    14    28     3    1
    15    28    29    1
    16     3    24    1
    17     3    16    1
    18     8    14    2
    19     8    12    1
    20    15    14    1
    21    13    12    1
    22    27    24    1
    23    18    16    1
    24    24    25    1
    25    24    26    1
    26    16    17    1
    27    16    19    1
