@<TRIPOS>MOLECULE
(<i>E</i>)-<i>N</i>'-(2-Hydroxy-3,5-diiodobenzylidene)nicotinohydrazide acetonitrile monosolvate
 35 35 0 0 0
SMALL
GASTEIGER

@<TRIPOS>ATOM
      1 I           6.0715    1.8424    1.6410 I       1  LIG1       -0.0400
      2 I          11.0667    4.1352   -0.7915 I       1  LIG1       -0.0438
      3 N           5.9654    7.4911    1.7820 N.2     1  LIG1       -0.1873
      4 N           5.5720    8.8002    1.9566 N.am    1  LIG1       -0.2029
      5 N           4.3073   12.7864    2.4128 N.ar    1  LIG1       -0.2625
      6 N           7.8032   10.7030    1.0254 N.1     1  LIG1       -0.1969
      7 O           5.5203    4.9489    1.9007 O.3     1  LIG1       -0.5051
      8 H           5.3647    5.7473    1.9973 H       1  LIG1        0.2922
      9 O           3.7827    8.1129    3.1414 O.2     1  LIG1       -0.2684
     10 C           7.5218    5.9078    0.9707 C.ar    1  LIG1        0.0380
     11 C           6.7392    4.7939    1.3385 C.ar    1  LIG1        0.1386
     12 C           7.2290    3.5182    1.1081 C.ar    1  LIG1        0.0563
     13 C           8.4597    3.3337    0.5168 C.ar    1  LIG1       -0.0319
     14 H           8.7804    2.4738    0.3701 H       1  LIG1        0.0639
     15 C           9.2159    4.4275    0.1432 C.ar    1  LIG1        0.0152
     16 C           8.7620    5.6979    0.3678 C.ar    1  LIG1       -0.0364
     17 H           9.2836    6.4253    0.1176 H       1  LIG1        0.0635
     18 C           7.0662    7.2758    1.1802 C.2     1  LIG1        0.0563
     19 H           7.5792    7.9898    0.8753 H       1  LIG1        0.0852
     20 C           4.4149    9.0155    2.6409 C.2     1  LIG1        0.2647
     21 C           3.9587   10.4342    2.7061 C.ar    1  LIG1        0.0564
     22 C           2.6693   10.6790    3.1147 C.ar    1  LIG1       -0.0467
     23 H           2.1201    9.9742    3.3730 H       1  LIG1        0.0626
     24 C           2.1921   11.9761    3.1391 C.ar    1  LIG1       -0.0429
     25 H           1.3149   12.1619    3.3870 H       1  LIG1        0.0633
     26 C           3.0528   12.9736    2.7888 C.ar    1  LIG1        0.0276
     27 H           2.7365   13.8468    2.8155 H       1  LIG1        0.0829
     28 C           4.7344   11.5254    2.3837 C.ar    1  LIG1        0.0397
     29 H           5.6148   11.3716    2.1277 H       1  LIG1        0.0837
     30 C           9.3419   12.6687    0.4888 C.3     1  LIG1        0.0232
     31 H           9.9367   12.4200   -0.2223 H       1  LIG1        0.0382
     32 H           9.8539   12.9041    1.2663 H       1  LIG1        0.0382
     33 H           8.8128   13.4216    0.2142 H       1  LIG1        0.0382
     34 C           8.4764   11.5615    0.8008 C.1     1  LIG1        0.0591
     35 H           6.0639    9.4541    1.5713 H       1  LIG1        0.1776
@<TRIPOS>BOND
     1     2    15    1
     2    31    30    1
     3    17    16    1
     4    15    16   ar
     5    15    13   ar
     6    33    30    1
     7    16    10   ar
     8    14    13    1
     9    30    34    1
    10    30    32    1
    11    13    12   ar
    12    34     6    3
    13    19    18    1
    14    10    18    1
    15    10    11   ar
    16    12    11   ar
    17    12     1    1
    18    18     3    2
    19    11     7    1
    20    35     4    1
    21     3     4    1
    22     7     8    1
    23     4    20   am
    24    29    28    1
    25    28     5   ar
    26    28    21   ar
    27     5    26   ar
    28    20    21    1
    29    20     9    2
    30    21    22   ar
    31    26    27    1
    32    26    24   ar
    33    22    24   ar
    34    22    23    1
    35    24    25    1
