@<TRIPOS>MOLECULE
3-[2-Hydroxy-3-(2,4,6-trimethylphenyl)propyl]-3-methyl-1-phenylthiourea
 50 51 0 0 0
SMALL
GASTEIGER

@<TRIPOS>ATOM
      1 S           1.8381    4.0025    9.6292 S.2     1  LIG1       -0.0184
      2 O           6.1420    2.1690    8.0992 O.3     1  LIG1       -0.3899
      3 H           6.7168    2.6921    7.8149 H       1  LIG1        0.2099
      4 N           3.9579    2.4771   10.1907 N.am    1  LIG1       -0.3130
      5 N           3.4398    2.6009    7.9776 N.am    1  LIG1       -0.2967
      6 H           4.2816    2.3821    7.8802 H       1  LIG1        0.1538
      7 C           8.7200    1.1368    9.2888 C.ar    1  LIG1       -0.0390
      8 C           9.5126    1.7819   10.2529 C.ar    1  LIG1       -0.0467
      9 C          10.7815    2.2312    9.9056 C.ar    1  LIG1       -0.0556
     10 H          11.3030    2.6864   10.5556 H       1  LIG1        0.0623
     11 C          11.3073    2.0354    8.6372 C.ar    1  LIG1       -0.0499
     12 C          10.5226    1.3803    7.7057 C.ar    1  LIG1       -0.0556
     13 H          10.8721    1.2302    6.8355 H       1  LIG1        0.0623
     14 C           9.2388    0.9328    8.0000 C.ar    1  LIG1       -0.0467
     15 C           9.0353    1.9726   11.6744 C.3     1  LIG1       -0.0394
     16 H           9.6788    2.5273   12.1630 H       1  LIG1        0.0278
     17 H           8.9570    1.0997   12.1133 H       1  LIG1        0.0278
     18 H           8.1609    2.4156   11.6687 H       1  LIG1        0.0278
     19 C          12.7022    2.4988    8.2791 C.3     1  LIG1       -0.0397
     20 H          12.6568    3.1106    7.5148 H       1  LIG1        0.0278
     21 H          13.2542    1.7229    8.0434 H       1  LIG1        0.0278
     22 H          13.0998    2.9613    9.0461 H       1  LIG1        0.0278
     23 C           8.4544    0.2186    6.9253 C.3     1  LIG1       -0.0394
     24 H           8.9824    0.1901    6.1002 H       1  LIG1        0.0278
     25 H           7.6166    0.6983    6.7593 H       1  LIG1        0.0278
     26 H           8.2557   -0.6951    7.2179 H       1  LIG1        0.0278
     27 C           7.3182    0.6948    9.6476 C.3     1  LIG1        0.0004
     28 H           7.3068    0.3793   10.5867 H       1  LIG1        0.0339
     29 H           7.0593   -0.0653    9.0694 H       1  LIG1        0.0339
     30 C           6.2926    1.8230    9.4840 C.3     1  LIG1        0.0748
     31 H           6.5862    2.6252   10.0037 H       1  LIG1        0.0612
     32 C           4.9091    1.3777    9.9537 C.3     1  LIG1        0.0398
     33 H           4.5251    0.7693    9.2731 H       1  LIG1        0.0490
     34 H           5.0120    0.8623   10.7919 H       1  LIG1        0.0490
     35 C           3.9235    2.9819   11.5542 C.3     1  LIG1        0.0023
     36 H           3.6808    3.9313   11.5459 H       1  LIG1        0.0428
     37 H           4.8059    2.8740   11.9656 H       1  LIG1        0.0428
     38 H           3.2595    2.4800   12.0713 H       1  LIG1        0.0428
     39 C           3.1223    2.9762    9.2434 C.2     1  LIG1        0.1370
     40 C           2.7513    2.7527    6.7582 C.ar    1  LIG1        0.0326
     41 C           1.3798    2.9497    6.6175 C.ar    1  LIG1       -0.0405
     42 H           0.8276    3.0551    7.3827 H       1  LIG1        0.0636
     43 C           0.8300    2.9899    5.3423 C.ar    1  LIG1       -0.0600
     44 H          -0.1041    3.1334    5.2451 H       1  LIG1        0.0618
     45 C           1.6080    2.8261    4.2138 C.ar    1  LIG1       -0.0616
     46 H           1.2127    2.8528    3.3501 H       1  LIG1        0.0618
     47 C           2.9715    2.6226    4.3545 C.ar    1  LIG1       -0.0600
     48 H           3.5160    2.5004    3.5864 H       1  LIG1        0.0618
     49 C           3.5386    2.5974    5.6162 C.ar    1  LIG1       -0.0405
     50 H           4.4756    2.4727    5.7069 H       1  LIG1        0.0636
@<TRIPOS>BOND
     1    46    45    1
     2    48    47    1
     3    45    47   ar
     4    45    43   ar
     5    47    49   ar
     6    44    43    1
     7    43    41   ar
     8    49    50    1
     9    49    40   ar
    10    24    23    1
    11    41    40   ar
    12    41    42    1
    13    40     5    1
    14    25    23    1
    15    13    12    1
    16    23    26    1
    17    23    14    1
    18    20    19    1
    19    12    14   ar
    20    12    11   ar
    21     3     2    1
    22     6     5    1
    23     5    39    1
    24    14     7   ar
    25    21    19    1
    26     2    30    1
    27    19    11    1
    28    19    22    1
    29    11     9   ar
    30    29    27    1
    31    39     1    2
    32    39     4    1
    33    33    32    1
    34     7    27    1
    35     7     8   ar
    36    30    27    1
    37    30    32    1
    38    30    31    1
    39    27    28    1
    40     9     8   ar
    41     9    10    1
    42    32     4    1
    43    32    34    1
    44     4    35    1
    45     8    15    1
    46    36    35    1
    47    35    37    1
    48    35    38    1
    49    18    15    1
    50    15    17    1
    51    15    16    1
