@<TRIPOS>MOLECULE
6-Chloro-3-nitro-<i>N</i>-(propan-2-yl)pyridin-2-amine
 48 48 0 0 0
SMALL
GASTEIGER

@<TRIPOS>ATOM
      1 CL          2.1650   -2.2461    8.6195 Cl      1  LIG1       -0.0620
      2 CL          3.0861    2.2944   14.6729 Cl      2  LIG2       -0.0620
      3 O           2.6996    2.8824    4.6426 O.2     1  LIG1       -0.1260
      4 O           2.9871    3.8985    6.4936 O.2     1  LIG1       -0.1260
      5 O           5.0729    8.2186   16.6395 O.2     2  LIG2       -0.1260
      6 O           4.9992    7.1893   18.5229 O.2     2  LIG2       -0.1260
      7 N           2.6128    0.2948    8.5413 N.ar    1  LIG1       -0.2185
      8 N           3.0453    2.5264    8.7710 N.pl3   1  LIG1       -0.3249
      9 H           3.1774    3.2961    8.4128 H       1  LIG1        0.1478
     10 N           2.7723    2.8641    5.8615 N.pl3   1  LIG1        0.0598
     11 N           3.8468    4.7592   14.6795 N.ar    2  LIG2       -0.2185
     12 N           4.5030    6.9337   14.3896 N.pl3   2  LIG2       -0.3249
     13 H           4.7890    7.6731   14.7223 H       2  LIG2        0.1478
     14 N           4.8650    7.2014   17.3028 N.pl3   2  LIG2        0.0598
     15 C           2.3413   -0.7289    7.7738 C.ar    1  LIG1        0.1315
     16 C           2.1945   -0.7202    6.4081 C.ar    1  LIG1       -0.0225
     17 H           2.0041   -1.4937    5.9277 H       1  LIG1        0.0648
     18 C           2.3446    0.4917    5.7953 C.ar    1  LIG1       -0.0252
     19 H           2.2605    0.5597    4.8715 H       1  LIG1        0.0642
     20 C           2.6228    1.6175    6.5513 C.ar    1  LIG1        0.1658
     21 C           2.7578    1.5108    7.9623 C.ar    1  LIG1        0.1510
     22 C           3.1519    2.4291   10.2288 C.3     1  LIG1        0.0164
     23 H           3.6590    1.6190   10.4436 H       1  LIG1        0.0492
     24 C           1.8004    2.3156   10.8685 C.3     1  LIG1       -0.0469
     25 H           1.2736    3.0862   10.6422 H       1  LIG1        0.0247
     26 H           1.9012    2.2658   11.8231 H       1  LIG1        0.0247
     27 H           1.3617    1.5233   10.5514 H       1  LIG1        0.0247
     28 C           3.9369    3.6199   10.7284 C.3     1  LIG1       -0.0469
     29 H           4.7877    3.6512   10.2850 H       1  LIG1        0.0247
     30 H           4.0727    3.5394   11.6753 H       1  LIG1        0.0247
     31 H           3.4486    4.4254   10.5421 H       1  LIG1        0.0247
     32 C           3.6286    3.7474   15.4614 C.ar    2  LIG2        0.1315
     33 C           3.7994    3.7156   16.8425 C.ar    2  LIG2       -0.0225
     34 H           3.6395    2.9484   17.3429 H       2  LIG2        0.0648
     35 C           4.2158    4.8779   17.4129 C.ar    2  LIG2       -0.0252
     36 H           4.3437    4.9206   18.3329 H       2  LIG2        0.0642
     37 C           4.4486    5.9960   16.6366 C.ar    2  LIG2        0.1658
     38 C           4.2687    5.9259   15.2304 C.ar    2  LIG2        0.1510
     39 C           4.3061    6.8693   12.9354 C.3     2  LIG2        0.0164
     40 H           4.6285    5.9970   12.6268 H       2  LIG2        0.0492
     41 C           2.8620    6.9844   12.5622 C.3     2  LIG2       -0.0469
     42 H           2.5260    7.8384   12.8424 H       2  LIG2        0.0247
     43 H           2.3628    6.2871   12.9933 H       2  LIG2        0.0247
     44 H           2.7700    6.9015   11.6091 H       2  LIG2        0.0247
     45 C           5.1598    7.9293   12.2943 C.3     2  LIG2       -0.0469
     46 H           5.0887    7.8622   11.3397 H       2  LIG2        0.0247
     47 H           6.0749    7.8053   12.5576 H       2  LIG2        0.0247
     48 H           4.8600    8.7965   12.5776 H       2  LIG2        0.0247
@<TRIPOS>BOND
     1     3    10    2
     2    19    18    1
     3    18    16   ar
     4    18    20   ar
     5    10     4    2
     6    10    20    1
     7    17    16    1
     8    16    15   ar
     9    20    21   ar
    10    15     7   ar
    11    15     1    1
    12    21     7   ar
    13    21     8    1
    14     9     8    1
    15     8    22    1
    16    22    23    1
    17    22    28    1
    18    22    24    1
    19    29    28    1
    20    31    28    1
    21    27    24    1
    22    25    24    1
    23    28    30    1
    24    24    26    1
    25    46    45    1
    26    44    41    1
    27    45    47    1
    28    45    48    1
    29    45    39    1
    30    41    42    1
    31    41    39    1
    32    41    43    1
    33    40    39    1
    34    39    12    1
    35    12    13    1
    36    12    38    1
    37     2    32    1
    38    11    38   ar
    39    11    32   ar
    40    38    37   ar
    41    32    33   ar
    42    37    14    1
    43    37    35   ar
    44     5    14    2
    45    33    34    1
    46    33    35   ar
    47    14     6    2
    48    35    36    1
