@<TRIPOS>MOLECULE
<i>N</i>'-[(<i>E</i>)-2-Methoxybenzylidene]pyrazine-2-carbohydrazide
 30 31 0 0 0
SMALL
GASTEIGER

@<TRIPOS>ATOM
      1 O           0.2300    1.6064   11.1739 O.2     1  LIG1       -0.2671
      2 O           0.3094    1.6064    4.4185 O.3     1  LIG1       -0.4883
      3 N           3.6478    1.6064   10.1638 N.ar    1  LIG1       -0.2473
      4 N           4.0024    1.6064   12.9590 N.ar    1  LIG1       -0.2595
      5 N           1.1821    1.6064    9.1005 N.am    1  LIG1       -0.2275
      6 H           1.9477    1.6064    8.6748 H       1  LIG1        0.1710
      7 N          -0.0205    1.6064    8.4214 N.3     1  LIG1       -0.1324
      8 C           2.6064    1.6064   11.0163 C.ar    1  LIG1        0.1446
      9 C           4.8645    1.6064   10.7265 C.ar    1  LIG1        0.0465
     10 H           5.6322    1.6064   10.1668 H       1  LIG1        0.0845
     11 C           5.0353    1.6064   12.1071 C.ar    1  LIG1        0.0457
     12 H           5.9179    1.6064   12.4580 H       1  LIG1        0.0845
     13 C           2.7859    1.6064   12.3934 C.ar    1  LIG1        0.0581
     14 H           2.0196    1.6064   12.9554 H       1  LIG1        0.0853
     15 C           1.2161    1.6064   10.4486 C.2     1  LIG1        0.2786
     16 C           0.0796    1.6064    7.1456 C.3     1  LIG1        0.0965
     17 H           0.9405    1.6064    6.7441 H       1  LIG1        0.0565
     18 C          -1.1085    1.6064    6.2982 C.ar    1  LIG1        0.0164
     19 C          -0.9686    1.6064    4.8929 C.ar    1  LIG1        0.1255
     20 C          -2.0965    1.6064    4.0728 C.ar    1  LIG1       -0.0196
     21 H          -2.0011    1.6064    3.1283 H       1  LIG1        0.0654
     22 C          -3.3507    1.6064    4.6435 C.ar    1  LIG1       -0.0583
     23 H          -4.1192    1.6064    4.0851 H       1  LIG1        0.0619
     24 C          -3.5083    1.6064    6.0231 C.ar    1  LIG1       -0.0612
     25 H          -4.3773    1.6064    6.4068 H       1  LIG1        0.0618
     26 C          -2.3912    1.6064    6.8296 C.ar    1  LIG1       -0.0534
     27 H          -2.5019    1.6064    7.7730 H       1  LIG1        0.0622
     28 C           0.4843    1.6064    2.9897 C.3     1  LIG1        0.1235
     29 H           1.4455    1.6064    2.8008 H       1  LIG1        0.0731
     30 H           0.0770    2.4122    2.6089 H       1  LIG1        0.0731
@<TRIPOS>BOND
     1    30    28    1
     2    29    28    1
     3    28     2    1
     4    21    20    1
     5    20    22   ar
     6    20    19   ar
     7    23    22    1
     8     2    19    1
     9    22    24   ar
    10    19    18   ar
    11    24    25    1
    12    24    26   ar
    13    18    26   ar
    14    18    16    1
    15    17    16    1
    16    26    27    1
    17    16     7    1
    18     7     5    1
    19     6     5    1
    20     5    15   am
    21     3     9   ar
    22     3     8   ar
    23    10     9    1
    24    15     8    1
    25    15     1    2
    26     9    11   ar
    27     8    13   ar
    28    11    12    1
    29    11     4   ar
    30    13    14    1
    31    13     4   ar
