@<TRIPOS>MOLECULE
{2,2'-[(Benzylazanediyl)dimethylene]diphenolato}(methanolato)boron
 49 53 0 0 0
SMALL
GASTEIGER

@<TRIPOS>ATOM
      1 B          -1.1087    3.4121    5.7697 B       1  LIG1        0.0000
      2 N          -1.2532    5.0430    5.6520 N.4     1  LIG1        1.0000
      3 O          -2.4315    2.8344    5.7528 O.3     1  LIG1        0.0000
      4 O          -0.4051    3.1754    6.9863 O.3     1  LIG1        0.0000
      5 O          -0.3980    2.9849    4.5648 O.3     1  LIG1        0.0000
      6 C           0.1233    5.6366    5.6656 C.3     1  LIG1        0.0000
      7 H           0.4597    5.6397    6.5757 H       1  LIG1        0.0000
      8 H           0.0754    6.5568    5.3628 H       1  LIG1        0.0000
      9 C           1.0845    4.8740    4.7846 C.ar    1  LIG1        0.0000
     10 C           0.7862    3.6084    4.2813 C.ar    1  LIG1        0.0000
     11 C           1.6825    2.9597    3.4364 C.ar    1  LIG1        0.0000
     12 H           1.4698    2.1291    3.0776 H       1  LIG1        0.0000
     13 C           2.8910    3.5583    3.1357 C.ar    1  LIG1        0.0000
     14 H           3.4908    3.1247    2.5720 H       1  LIG1        0.0000
     15 C           3.2166    4.7872    3.6604 C.ar    1  LIG1        0.0000
     16 H           4.0392    5.1742    3.4682 H       1  LIG1        0.0000
     17 C           2.3187    5.4429    4.4706 C.ar    1  LIG1        0.0000
     18 H           2.5378    6.2790    4.8146 H       1  LIG1        0.0000
     19 C          -2.0750    5.5766    6.8160 C.3     1  LIG1        0.0000
     20 H          -2.9418    5.1413    6.8058 H       1  LIG1        0.0000
     21 H          -1.6338    5.3280    7.6437 H       1  LIG1        0.0000
     22 C          -2.2889    7.0711    6.8184 C.ar    1  LIG1        0.0000
     23 C          -1.4171    7.9027    7.5099 C.ar    1  LIG1        0.0000
     24 H          -0.6932    7.5344    7.9632 H       1  LIG1        0.0000
     25 C          -1.6123    9.2712    7.5323 C.ar    1  LIG1        0.0000
     26 H          -1.0198    9.8140    7.9987 H       1  LIG1        0.0000
     27 C          -2.6864    9.8384    6.8663 C.ar    1  LIG1        0.0000
     28 H          -2.8078   10.7598    6.8682 H       1  LIG1        0.0000
     29 C          -3.5738    9.0209    6.2016 C.ar    1  LIG1        0.0000
     30 H          -4.3064    9.3920    5.7647 H       1  LIG1        0.0000
     31 C          -3.3794    7.6447    6.1803 C.ar    1  LIG1        0.0000
     32 H          -3.9877    7.1018    5.7335 H       1  LIG1        0.0000
     33 C          -1.9253    5.3267    4.3458 C.3     1  LIG1        0.0000
     34 H          -1.3230    5.1064    3.6188 H       1  LIG1        0.0000
     35 H          -2.1315    6.2727    4.2877 H       1  LIG1        0.0000
     36 C          -3.1912    4.5290    4.2045 C.ar    1  LIG1        0.0000
     37 C          -4.2097    5.0004    3.3838 C.ar    1  LIG1        0.0000
     38 H          -4.0859    5.7881    2.9058 H       1  LIG1        0.0000
     39 C          -5.4014    4.3154    3.2685 C.ar    1  LIG1        0.0000
     40 H          -6.0752    4.6409    2.7169 H       1  LIG1        0.0000
     41 C          -5.5894    3.1501    3.9721 C.ar    1  LIG1        0.0000
     42 H          -6.3985    2.6963    3.9056 H       1  LIG1        0.0000
     43 C          -4.5758    2.6434    4.7850 C.ar    1  LIG1        0.0000
     44 H          -4.7044    1.8470    5.2492 H       1  LIG1        0.0000
     45 C          -3.3794    3.3302    4.8992 C.ar    1  LIG1        0.0000
     46 C           0.3330    1.9985    7.1257 C.3     1  LIG1        0.0000
     47 H          -0.2640    1.2469    7.1452 H       1  LIG1        0.0000
     48 H           0.8345    2.0305    7.9434 H       1  LIG1        0.0000
     49 H           0.9357    1.9085    6.3839 H       1  LIG1        0.0000
@<TRIPOS>BOND
     1    14    13    1
     2    40    39    1
     3    38    37    1
     4    12    11    1
     5    13    11   ar
     6    13    15   ar
     7    39    37   ar
     8    39    41   ar
     9    37    36   ar
    10    11    10   ar
    11    16    15    1
    12    34    33    1
    13    15    17   ar
    14    42    41    1
    15    41    43   ar
    16    36    33    1
    17    36    45   ar
    18    10     5    1
    19    10     9   ar
    20    35    33    1
    21    33     2    1
    22    17     9   ar
    23    17    18    1
    24     5     1    1
    25     9     6    1
    26    43    45   ar
    27    43    44    1
    28    45     3    1
    29     8     6    1
    30     2     6    1
    31     2     1    1
    32     2    19    1
    33     6     7    1
    34    32    31    1
    35     3     1    1
    36    30    29    1
    37     1     4    1
    38    31    29   ar
    39    31    22   ar
    40    29    27   ar
    41    49    46    1
    42    20    19    1
    43    19    22    1
    44    19    21    1
    45    22    23   ar
    46    27    28    1
    47    27    25   ar
    48     4    46    1
    49    46    47    1
    50    46    48    1
    51    23    25   ar
    52    23    24    1
    53    25    26    1
