@<TRIPOS>MOLECULE
1-Bromo-2,3,5,6-tetrafluoro-4-nitrobenzene
 14 14 0 0 0
SMALL
GASTEIGER

@<TRIPOS>ATOM
      1 BR          6.5889    6.8851    1.5014 Br      1  LIG1       -0.0442
      2 F           5.4222    7.5831   -1.2306 F       1  LIG1       -0.2011
      3 F           3.4405    6.3997   -2.5645 F       1  LIG1       -0.1999
      4 F           2.8382    3.3651    1.0325 F       1  LIG1       -0.1999
      5 F           4.8579    4.5395    2.3375 F       1  LIG1       -0.2011
      6 N           2.0475    4.1743   -1.5650 N.pl3   1  LIG1        0.0623
      7 O           2.2262    3.9858   -2.7535 O.2     1  LIG1       -0.1260
      8 O           1.0396    3.8514   -0.9322 O.2     1  LIG1       -0.1260
      9 C           4.8012    6.5368   -0.6648 C.ar    1  LIG1        0.1775
     10 C           3.7837    5.9172   -1.3712 C.ar    1  LIG1        0.1925
     11 C           3.1184    4.8432   -0.8071 C.ar    1  LIG1        0.2019
     12 C           3.4626    4.4042    0.4587 C.ar    1  LIG1        0.1925
     13 C           4.5011    5.0074    1.1443 C.ar    1  LIG1        0.1775
     14 C           5.1721    6.0847    0.5740 C.ar    1  LIG1        0.0940
@<TRIPOS>BOND
     1     7     6    2
     2     3    10    1
     3     6     8    2
     4     6    11    1
     5    10    11   ar
     6    10     9   ar
     7     2     9    1
     8    11    12   ar
     9     9    14   ar
    10    12     4    1
    11    12    13   ar
    12    14    13   ar
    13    14     1    1
    14    13     5    1
