@<TRIPOS>MOLECULE
7-Methoxy-3,4-dihydronaphthalen-1(2<i>H</i>)-one
 25 26 0 0 0
SMALL
GASTEIGER

@<TRIPOS>ATOM
      1 O           4.5160    6.2838    7.4502 O.2     1  LIG1       -0.2920
      2 O           6.2627    5.0941   11.9138 O.3     1  LIG1       -0.4951
      3 C           5.0279    4.9255   11.3573 C.ar    1  LIG1        0.1208
      4 C           4.8757    5.4199   10.0760 C.ar    1  LIG1       -0.0092
      5 H           5.6083    5.8415    9.6435 H       1  LIG1        0.0661
      6 C           3.6574    5.3046    9.4154 C.ar    1  LIG1        0.0240
      7 C           3.5474    5.8268    8.0257 C.2     1  LIG1        0.1635
      8 C           2.2079    5.7483    7.3537 C.3     1  LIG1        0.0108
      9 H           2.1834    4.9417    6.7802 H       1  LIG1        0.0345
     10 H           2.0967    6.5384    6.7671 H       1  LIG1        0.0345
     11 C           1.0457    5.6935    8.3315 C.3     1  LIG1       -0.0420
     12 H           0.9814    6.5519    8.8200 H       1  LIG1        0.0272
     13 H           0.2001    5.5565    7.8355 H       1  LIG1        0.0272
     14 C           1.2492    4.5583    9.3178 C.3     1  LIG1       -0.0266
     15 H           0.5114    4.5604    9.9772 H       1  LIG1        0.0313
     16 H           1.2241    3.6949    8.8348 H       1  LIG1        0.0313
     17 C           2.5659    4.6897   10.0390 C.ar    1  LIG1       -0.0367
     18 C           2.7480    4.2007   11.3263 C.ar    1  LIG1       -0.0545
     19 H           2.0183    3.7777   11.7639 H       1  LIG1        0.0622
     20 C           3.9527    4.3085   11.9916 C.ar    1  LIG1       -0.0197
     21 H           4.0472    3.9657   12.8717 H       1  LIG1        0.0654
     22 C           6.5156    4.5044   13.1760 C.3     1  LIG1        0.0788
     23 H           7.4436    4.6783   13.4388 H       1  LIG1        0.0660
     24 H           6.3679    3.5374   13.1199 H       1  LIG1        0.0660
     25 H           5.9098    4.8895   13.8432 H       1  LIG1        0.0660
@<TRIPOS>BOND
     1    10     8    1
     2     9     8    1
     3     8     7    1
     4     8    11    1
     5     1     7    2
     6    13    11    1
     7     7     6    1
     8    11    12    1
     9    11    14    1
    10    16    14    1
    11    14    15    1
    12    14    17    1
    13     6    17   ar
    14     6     4   ar
    15     5     4    1
    16    17    18   ar
    17     4     3   ar
    18    18    19    1
    19    18    20   ar
    20     3     2    1
    21     3    20   ar
    22     2    22    1
    23    20    21    1
    24    24    22    1
    25    22    23    1
    26    22    25    1
