@<TRIPOS>MOLECULE
4,6-Dichloro-5-(2-methoxyphenoxy)-2,2'-bipyrimidine
 33 35 0 0 0
SMALL
GASTEIGER

@<TRIPOS>ATOM
      1 CL         -1.2237    1.9011   16.9846 Cl      1  LIG1       -0.0579
      2 CL         -5.6238    0.0377   14.5410 Cl      1  LIG1       -0.0579
      3 O          -3.4240    2.0118   14.9846 O.3     1  LIG1       -0.4463
      4 N          -4.4764   -1.0715   16.5927 N.ar    1  LIG1       -0.2091
      5 O          -4.0831    3.8390   13.2834 O.3     1  LIG1       -0.4914
      6 N          -2.5305   -0.2458   17.6797 N.ar    1  LIG1       -0.2091
      7 N          -4.7342   -2.7627   18.7834 N.ar    1  LIG1       -0.2331
      8 C          -3.5364   -2.3157   18.4272 C.ar    1  LIG1        0.1977
      9 C          -3.5143   -1.1258   17.5161 C.ar    1  LIG1        0.2006
     10 N          -2.3552   -2.8073   18.7791 N.ar    1  LIG1       -0.2331
     11 C          -2.9337    1.8502   13.6894 C.ar    1  LIG1        0.1701
     12 C          -3.4314    0.9214   15.8094 C.ar    1  LIG1        0.2019
     13 C          -2.7943    2.7870   11.4985 C.ar    1  LIG1       -0.0163
     14 H          -3.0276    3.4408   10.8784 H       1  LIG1        0.0655
     15 C          -3.2847    2.8576   12.7934 C.ar    1  LIG1        0.1621
     16 C          -1.9600    1.7488   11.1234 C.ar    1  LIG1       -0.0581
     17 H          -1.6298    1.7131   10.2541 H       1  LIG1        0.0619
     18 C          -2.5065    0.7641   16.8266 C.ar    1  LIG1        0.1767
     19 C          -3.5808   -4.4579   19.9640 C.ar    1  LIG1       -0.0254
     20 H          -3.5951   -5.2220   20.4939 H       1  LIG1        0.0648
     21 C          -4.2444    5.0087   12.4843 C.3     1  LIG1        0.0790
     22 H          -4.6396    4.7694   11.6435 H       1  LIG1        0.0660
     23 H          -3.3871    5.4134   12.3320 H       1  LIG1        0.0660
     24 H          -4.8155    5.6316   12.9402 H       1  LIG1        0.0660
     25 C          -2.1152    0.8176   13.3135 C.ar    1  LIG1       -0.0157
     26 H          -1.8958    0.1501   13.9230 H       1  LIG1        0.0655
     27 C          -1.6150    0.7722   12.0217 C.ar    1  LIG1       -0.0581
     28 H          -1.0471    0.0811   11.7648 H       1  LIG1        0.0619
     29 C          -4.7330   -3.8488   19.5628 C.ar    1  LIG1        0.0315
     30 H          -5.5472   -4.2016   19.8411 H       1  LIG1        0.0831
     31 C          -4.4083   -0.0519   15.7575 C.ar    1  LIG1        0.1767
     32 C          -2.4036   -3.8974   19.5529 C.ar    1  LIG1        0.0315
     33 H          -1.6033   -4.2900   19.8215 H       1  LIG1        0.0831
@<TRIPOS>BOND
     1    17    16    1
     2    14    13    1
     3    16    13   ar
     4    16    27   ar
     5    13    15   ar
     6    22    21    1
     7    28    27    1
     8    27    25   ar
     9    23    21    1
    10    21    24    1
    11    21     5    1
    12    15     5    1
    13    15    11   ar
    14    25    11   ar
    15    25    26    1
    16    11     3    1
    17     2    31    1
    18     3    12    1
    19    31    12   ar
    20    31     4   ar
    21    12    18   ar
    22     4     9   ar
    23    18     1    1
    24    18     6   ar
    25     9     6   ar
    26     9     8    1
    27     8    10   ar
    28     8     7   ar
    29    10    32   ar
    30     7    29   ar
    31    32    33    1
    32    32    19   ar
    33    29    30    1
    34    29    19   ar
    35    19    20    1
