@<TRIPOS>MOLECULE
3-(4-Chlorophenyl)-1-[(2<i>R</i>,4a<i>R</i>,8a<i>R</i>)-4a,8-dimethyl- 1,2,3,4,4a,5,6,8a-octahydronaphthalen-2-yl]prop-2-en-1-one
 48 50 0 0 0
SMALL
GASTEIGER

@<TRIPOS>ATOM
      1 C          -2.2567    1.2021    3.3018 C.3     1  LIG1       -0.0362
      2 H          -3.0705    1.7289    3.3155 H       1  LIG1        0.0278
      3 H          -2.1403    0.8049    4.1790 H       1  LIG1        0.0278
      4 C          -1.0705    2.1079    2.9925 C.3     1  LIG1        0.0221
      5 H          -0.2672    1.5475    3.0210 H       1  LIG1        0.0381
      6 C          -1.1633    2.6803    1.5841 C.3     1  LIG1       -0.0427
      7 H          -0.3686    3.2036    1.3949 H       1  LIG1        0.0272
      8 H          -1.9321    3.2687    1.5240 H       1  LIG1        0.0272
      9 C          -1.2954    1.5608    0.5465 C.3     1  LIG1       -0.0464
     10 H          -0.4874    1.0249    0.5526 H       1  LIG1        0.0271
     11 H          -1.3855    1.9545   -0.3355 H       1  LIG1        0.0271
     12 C          -2.5024    0.6536    0.8183 C.3     1  LIG1       -0.0252
     13 C          -2.4710   -0.5534   -0.1246 C.3     1  LIG1       -0.0436
     14 H          -2.4750   -0.2410   -1.0430 H       1  LIG1        0.0274
     15 H          -1.6475   -1.0473    0.0176 H       1  LIG1        0.0274
     16 C          -3.6558   -1.4844    0.0914 C.3     1  LIG1       -0.0340
     17 H          -4.4255   -1.1342   -0.3825 H       1  LIG1        0.0308
     18 H          -3.4478   -2.3559   -0.2804 H       1  LIG1        0.0308
     19 C          -3.9973   -1.6358    1.5346 C.2     1  LIG1       -0.0847
     20 H          -4.6391   -2.2705    1.7575 H       1  LIG1        0.0572
     21 C          -3.4584   -0.9380    2.5256 C.2     1  LIG1       -0.0729
     22 C          -2.3834    0.0960    2.2557 C.3     1  LIG1       -0.0141
     23 H          -1.5336   -0.3916    2.2819 H       1  LIG1        0.0351
     24 C          -0.8825    3.1987    4.0167 C.2     1  LIG1        0.1592
     25 C           0.3080    4.0722    3.8255 C.2     1  LIG1       -0.0184
     26 H           0.9658    3.8095    3.2228 H       1  LIG1        0.0653
     27 C           0.4627    5.2085    4.4828 C.2     1  LIG1       -0.0513
     28 H          -0.1822    5.4173    5.1187 H       1  LIG1        0.0624
     29 C           1.5574    6.1753    4.3052 C.ar    1  LIG1       -0.0248
     30 C           2.6566    5.9609    3.4727 C.ar    1  LIG1       -0.0532
     31 H           2.7333    5.1511    3.0210 H       1  LIG1        0.0624
     32 C           3.6257    6.9150    3.3049 C.ar    1  LIG1       -0.0428
     33 H           4.3497    6.7553    2.7430 H       1  LIG1        0.0632
     34 C           3.5187    8.1066    3.9737 C.ar    1  LIG1        0.0410
     35 C           2.4641    8.3413    4.8160 C.ar    1  LIG1       -0.0428
     36 H           2.4064    9.1463    5.2783 H       1  LIG1        0.0632
     37 C           1.4955    7.3893    4.9744 C.ar    1  LIG1       -0.0532
     38 H           0.7804    7.5588    5.5434 H       1  LIG1        0.0624
     39 C          -3.8710   -1.1699    3.9538 C.3     1  LIG1       -0.0435
     40 H          -4.5457   -1.8529    3.9854 H       1  LIG1        0.0274
     41 H          -4.2230   -0.3559    4.3221 H       1  LIG1        0.0274
     42 H          -3.1089   -1.4494    4.4664 H       1  LIG1        0.0274
     43 C          -3.7909    1.4326    0.6139 C.3     1  LIG1       -0.0590
     44 H          -3.8413    1.7359   -0.2956 H       1  LIG1        0.0235
     45 H          -3.8056    2.1885    1.2049 H       1  LIG1        0.0235
     46 H          -4.5419    0.8645    0.8036 H       1  LIG1        0.0235
     47 O          -1.6576    3.3745    4.9284 O.2     1  LIG1       -0.2924
     48 CL          4.7267    9.3362    3.7334 Cl      1  LIG1       -0.0835
@<TRIPOS>BOND
     1    14    13    1
     2    17    16    1
     3    11     9    1
     4    44    43    1
     5    18    16    1
     6    13    15    1
     7    13    16    1
     8    13    12    1
     9    16    19    1
    10     9    10    1
    11     9    12    1
    12     9     6    1
    13    43    46    1
    14    43    12    1
    15    43    45    1
    16    12    22    1
    17     7     6    1
    18     8     6    1
    19    19    20    1
    20    19    21    2
    21     6     4    1
    22    22    23    1
    23    22    21    1
    24    22     1    1
    25    21    39    1
    26    33    32    1
    27     4     5    1
    28     4     1    1
    29     4    24    1
    30    31    30    1
    31    26    25    1
    32     1     2    1
    33     1     3    1
    34    32    30   ar
    35    32    34   ar
    36    30    29   ar
    37    48    34    1
    38    25    24    1
    39    25    27    2
    40    39    40    1
    41    39    41    1
    42    39    42    1
    43    34    35   ar
    44    24    47    2
    45    29    27    1
    46    29    37   ar
    47    27    28    1
    48    35    37   ar
    49    35    36    1
    50    37    38    1
