@<TRIPOS>MOLECULE
2-(4-Methoxy-2-methylanilino)-1,2-diphenylethanone
 46 48 0 0 0
SMALL
GASTEIGER

@<TRIPOS>ATOM
      1 C           8.4121    5.7397    2.3575 C.2     1  LIG1        0.1876
      2 C           8.0392    6.3602    1.0502 C.ar    1  LIG1        0.0196
      3 C           8.7387    7.4197    0.4777 C.ar    1  LIG1       -0.0512
      4 H           9.4610    7.8200    0.9480 H       1  LIG1        0.0625
      5 C           8.3802    7.8937   -0.7824 C.ar    1  LIG1       -0.0611
      6 H           8.8661    8.6081   -1.1774 H       1  LIG1        0.0618
      7 C           7.3151    7.3234   -1.4595 C.ar    1  LIG1       -0.0617
      8 H           7.0765    7.6454   -2.3210 H       1  LIG1        0.0618
      9 C           6.5990    6.2895   -0.8909 C.ar    1  LIG1       -0.0611
     10 H           5.8581    5.9146   -1.3535 H       1  LIG1        0.0618
     11 C           6.9604    5.7979    0.3538 C.ar    1  LIG1       -0.0512
     12 H           6.4748    5.0769    0.7363 H       1  LIG1        0.0625
     13 C           9.2555    6.5190    3.3897 C.3     1  LIG1        0.1094
     14 H           9.9957    7.0031    2.9239 H       1  LIG1        0.0631
     15 C           8.3045    7.5320    4.0423 C.ar    1  LIG1       -0.0198
     16 C           8.3876    8.8936    3.7647 C.ar    1  LIG1       -0.0564
     17 H           9.0675    9.2168    3.1836 H       1  LIG1        0.0621
     18 C           7.4809    9.7853    4.3327 C.ar    1  LIG1       -0.0614
     19 H           7.5447   10.7128    4.1387 H       1  LIG1        0.0618
     20 C           6.4832    9.3239    5.1818 C.ar    1  LIG1       -0.0617
     21 H           5.8638    9.9336    5.5651 H       1  LIG1        0.0618
     22 C           6.3958    7.9742    5.4666 C.ar    1  LIG1       -0.0614
     23 H           5.7141    7.6542    6.0453 H       1  LIG1        0.0618
     24 C           7.3041    7.0846    4.9060 C.ar    1  LIG1       -0.0564
     25 H           7.2426    6.1597    5.1133 H       1  LIG1        0.0621
     26 C          10.5456    5.8382    5.4411 C.ar    1  LIG1        0.0311
     27 C          10.7886    4.7976    6.3717 C.ar    1  LIG1       -0.0262
     28 C          11.5435    5.0865    7.5025 C.ar    1  LIG1       -0.0153
     29 H          11.7158    4.3929    8.1280 H       1  LIG1        0.0657
     30 C          12.0566    6.3559    7.7509 C.ar    1  LIG1        0.1205
     31 C          11.8271    7.3715    6.8382 C.ar    1  LIG1       -0.0182
     32 H          12.1806    8.2405    6.9879 H       1  LIG1        0.0655
     33 C          11.0696    7.1049    5.6921 C.ar    1  LIG1       -0.0371
     34 H          10.9084    7.8048    5.0707 H       1  LIG1        0.0637
     35 C          10.2309    3.4134    6.1515 C.3     1  LIG1       -0.0379
     36 H          10.5003    2.8312    6.8919 H       1  LIG1        0.0278
     37 H          10.5775    3.0514    5.3090 H       1  LIG1        0.0278
     38 H           9.2532    3.4583    6.1093 H       1  LIG1        0.0278
     39 C          13.2787    7.7655    9.2568 C.3     1  LIG1        0.0788
     40 H          13.7547    7.7207   10.1129 H       1  LIG1        0.0660
     41 H          12.5410    8.4062    9.3267 H       1  LIG1        0.0660
     42 H          13.8964    8.0555    8.5548 H       1  LIG1        0.0660
     43 N           9.8085    5.5357    4.2915 N.pl3   1  LIG1       -0.3302
     44 H           9.6716    4.6869    4.1049 H       1  LIG1        0.1471
     45 O           8.0111    4.6193    2.6371 O.2     1  LIG1       -0.2897
     46 O          12.7622    6.4811    8.9337 O.3     1  LIG1       -0.4951
@<TRIPOS>BOND
     1     8     7    1
     2     7     9   ar
     3     7     5   ar
     4    10     9    1
     5     6     5    1
     6     9    11   ar
     7     5     3   ar
     8    11    12    1
     9    11     2   ar
    10     3     4    1
    11     3     2   ar
    12     2     1    1
    13     1    45    2
    14     1    13    1
    15    14    13    1
    16    17    16    1
    17    13    15    1
    18    13    43    1
    19    16    15   ar
    20    16    18   ar
    21    15    24   ar
    22    44    43    1
    23    19    18    1
    24    43    26    1
    25    18    20   ar
    26    24    25    1
    27    24    22   ar
    28    34    33    1
    29    20    22   ar
    30    20    21    1
    31    37    35    1
    32    26    33   ar
    33    26    27   ar
    34    22    23    1
    35    33    31   ar
    36    38    35    1
    37    35    27    1
    38    35    36    1
    39    27    28   ar
    40    31    32    1
    41    31    30   ar
    42    28    30   ar
    43    28    29    1
    44    30    46    1
    45    42    39    1
    46    46    39    1
    47    39    41    1
    48    39    40    1
