@<TRIPOS>MOLECULE
1-Benzyl-1<i>H</i>-benzimidazol-2(3<i>H</i>)-one
 29 31 0 0 0
SMALL
GASTEIGER

@<TRIPOS>ATOM
      1 O           5.6554    4.5840    7.4717 O.2     1  LIG1       -0.2465
      2 N           4.5163    4.7607    5.4460 N.ar    1  LIG1       -0.3059
      3 H           4.1062    5.5059    5.5705 H       1  LIG1        0.1704
      4 C           5.3658    4.1787    6.3435 C.ar    1  LIG1        0.3279
      5 N           5.8478    3.0363    5.7494 N.ar    1  LIG1       -0.2879
      6 C           5.2594    2.8812    4.4971 C.ar    1  LIG1        0.0700
      7 C           5.3882    1.8894    3.5440 C.ar    1  LIG1       -0.0360
      8 H           5.9505    1.1612    3.6748 H       1  LIG1        0.0639
      9 C           4.6400    2.0280    2.3811 C.ar    1  LIG1       -0.0597
     10 H           4.7067    1.3810    1.7170 H       1  LIG1        0.0618
     11 C           3.7956    3.1121    2.1906 C.ar    1  LIG1       -0.0597
     12 H           3.3091    3.1753    1.4004 H       1  LIG1        0.0618
     13 C           3.6606    4.1052    3.1539 C.ar    1  LIG1       -0.0362
     14 H           3.0882    4.8270    3.0273 H       1  LIG1        0.0639
     15 C           4.4103    3.9763    4.3033 C.ar    1  LIG1        0.0670
     16 C           6.7019    2.0761    6.4303 C.3     1  LIG1        0.0531
     17 H           6.3054    1.1943    6.3516 H       1  LIG1        0.0543
     18 H           6.7346    2.3004    7.3734 H       1  LIG1        0.0543
     19 C           8.1139    2.0237    5.8935 C.ar    1  LIG1       -0.0276
     20 C           8.5591    0.9073    5.2063 C.ar    1  LIG1       -0.0569
     21 H           7.9790    0.1965    5.0540 H       1  LIG1        0.0621
     22 C           9.8647    0.8418    4.7437 C.ar    1  LIG1       -0.0614
     23 H          10.1529    0.0928    4.2729 H       1  LIG1        0.0618
     24 C          10.7295    1.8755    4.9777 C.ar    1  LIG1       -0.0617
     25 H          11.6078    1.8233    4.6782 H       1  LIG1        0.0618
     26 C          10.2990    2.9944    5.6577 C.ar    1  LIG1       -0.0614
     27 H          10.8855    3.7000    5.8112 H       1  LIG1        0.0618
     28 C           8.9912    3.0692    6.1134 C.ar    1  LIG1       -0.0569
     29 H           8.7030    3.8269    6.5698 H       1  LIG1        0.0621
@<TRIPOS>BOND
     1    12    11    1
     2    10     9    1
     3    11     9   ar
     4    11    13   ar
     5     9     7   ar
     6    14    13    1
     7    13    15   ar
     8     7     8    1
     9     7     6   ar
    10    23    22    1
    11    15     6   ar
    12    15     2   ar
    13     6     5   ar
    14    25    24    1
    15    22    24   ar
    16    22    20   ar
    17    24    26   ar
    18    21    20    1
    19    20    19   ar
    20     2     3    1
    21     2     4   ar
    22    26    27    1
    23    26    28   ar
    24     5     4   ar
    25     5    16    1
    26    19    28   ar
    27    19    16    1
    28    28    29    1
    29     4     1    2
    30    17    16    1
    31    16    18    1
