@<TRIPOS>MOLECULE
Methyl 2-benzyl-4-hydroxy-1,1-dioxo-1,2,3,4-tetrahydro-1\l^6^,2-benzothiazine-3-carboxylate
 39 41 0 0 0
SMALL
GASTEIGER

@<TRIPOS>ATOM
      1 S           7.0061    5.7647    4.2376 S.O2    1  LIG1        0.0760
      2 O           2.4161    5.5649    2.6421 O.2     1  LIG1       -0.2434
      3 C           7.5052    6.1606    2.5988 C.ar    1  LIG1        0.1194
      4 O           4.2065    6.6262    1.1551 O.2     1  LIG1       -0.5040
      5 C           8.8452    6.3690    2.2911 C.ar    1  LIG1       -0.0344
      6 H           9.5230    6.2103    2.9383 H       1  LIG1        0.0637
      7 O           3.0623    4.4332    4.4798 O.3     1  LIG1       -0.4635
      8 C           9.1714    6.8148    1.0138 C.ar    1  LIG1       -0.0599
      9 H          10.0813    6.9611    0.7846 H       1  LIG1        0.0618
     10 O           8.0188    4.9919    4.8976 O.2     1  LIG1       -0.1497
     11 C           8.1747    7.0485    0.0697 C.ar    1  LIG1       -0.0610
     12 H           8.4085    7.3722   -0.7920 H       1  LIG1        0.0618
     13 O           6.5441    6.9791    4.8444 O.2     1  LIG1       -0.1497
     14 C           6.8412    6.8122    0.3776 C.ar    1  LIG1       -0.0491
     15 H           6.1676    6.9633   -0.2744 H       1  LIG1        0.0625
     16 N           5.7069    4.7990    3.9829 N.pl3   1  LIG1       -0.1884
     17 C           6.4927    6.3488    1.6556 C.ar    1  LIG1        0.0451
     18 C           5.0890    6.0724    1.9967 C.2     1  LIG1        0.1554
     19 C           4.7263    5.3409    3.0950 C.2     1  LIG1        0.1774
     20 C           3.3046    5.1297    3.3785 C.2     1  LIG1        0.3583
     21 C           5.8772    3.3130    4.0043 C.3     1  LIG1        0.0604
     22 H           5.0596    2.9057    4.3859 H       1  LIG1        0.0532
     23 H           6.6317    3.0887    4.6054 H       1  LIG1        0.0532
     24 C           6.1379    2.6970    2.6535 C.ar    1  LIG1       -0.0284
     25 C           5.0768    2.2049    1.8956 C.ar    1  LIG1       -0.0570
     26 H           4.1887    2.2809    2.2248 H       1  LIG1        0.0621
     27 C           5.3058    1.6045    0.6639 C.ar    1  LIG1       -0.0615
     28 H           4.5760    1.2802    0.1498 H       1  LIG1        0.0618
     29 C           6.6050    1.4794    0.1847 C.ar    1  LIG1       -0.0617
     30 H           6.7635    1.0632   -0.6541 H       1  LIG1        0.0618
     31 C           7.6681    1.9604    0.9301 C.ar    1  LIG1       -0.0615
     32 H           8.5555    1.8666    0.6052 H       1  LIG1        0.0618
     33 C           1.6449    4.2702    4.7922 C.3     1  LIG1        0.0820
     34 H           1.2305    5.1515    4.8991 H       1  LIG1        0.0661
     35 H           1.5500    3.7606    5.6244 H       1  LIG1        0.0661
     36 H           1.2026    3.7880    4.0626 H       1  LIG1        0.0661
     37 C           7.4417    2.5801    2.1529 C.ar    1  LIG1       -0.0570
     38 H           8.1734    2.9254    2.6505 H       1  LIG1        0.0621
     39 H           3.3642    6.3901    1.4669 H       1  LIG1        0.2923
@<TRIPOS>BOND
     1    12    11    1
     2    30    29    1
     3    15    14    1
     4    11    14   ar
     5    11     8   ar
     6    28    27    1
     7    29    27   ar
     8    29    31   ar
     9    14    17   ar
    10    32    31    1
    11    27    25   ar
    12     9     8    1
    13    31    37   ar
    14     8     5   ar
    15     4    39    1
    16     4    18    1
    17    17    18    1
    18    17     3   ar
    19    25    26    1
    20    25    24   ar
    21    18    19    2
    22    37    38    1
    23    37    24   ar
    24     5     3   ar
    25     5     6    1
    26     3     1    1
    27     2    20    2
    28    24    21    1
    29    19    20    1
    30    19    16    1
    31    20     7    1
    32    16    21    1
    33    16     1    1
    34    21    22    1
    35    21    23    1
    36    36    33    1
    37     1    13    2
    38     1    10    2
    39     7    33    1
    40    33    34    1
    41    33    35    1
