@<TRIPOS>MOLECULE
Methyl 4'-isobutyl-2,2'-dimethyl-1,3-dioxo-2,3-dihydro-1<i>H</i>,4'<i>H</i>- spiro[isoquinoline-4,5'-oxazole]-4'-carboxylate
 48 50 0 0 0
SMALL
GASTEIGER

@<TRIPOS>ATOM
      1 O           3.5666   -1.7268    4.1339 O.2     1  LIG1       -0.2696
      2 O           4.0815    2.4248    2.3818 O.2     1  LIG1       -0.2703
      3 O           5.7012    1.5075    0.4303 O.2     1  LIG1       -0.4563
      4 O           8.9985   -0.0917    2.1945 O.2     1  LIG1       -0.2479
      5 O           7.4738   -0.4254    3.8200 O.3     1  LIG1       -0.4661
      6 N           3.8919    0.3752    3.3323 N.am    1  LIG1       -0.2376
      7 N           7.6815    2.1748    1.3096 N.2     1  LIG1       -0.2317
      8 C           5.7425   -0.6666    1.4381 C.ar    1  LIG1        0.0198
      9 C           6.5397   -1.1954    0.4231 C.ar    1  LIG1       -0.0535
     10 H           7.0128   -0.6274   -0.1420 H       1  LIG1        0.0622
     11 C           6.6262   -2.5732    0.2572 C.ar    1  LIG1       -0.0613
     12 H           7.1516   -2.9227   -0.4259 H       1  LIG1        0.0618
     13 C           5.9343   -3.4351    1.1042 C.ar    1  LIG1       -0.0610
     14 H           6.0092   -4.3557    0.9960 H       1  LIG1        0.0618
     15 C           5.1329   -2.9133    2.1111 C.ar    1  LIG1       -0.0492
     16 H           4.6649   -3.4842    2.6772 H       1  LIG1        0.0625
     17 C           5.0300   -1.5289    2.2730 C.ar    1  LIG1        0.0448
     18 C           4.1282   -1.0064    3.3284 C.2     1  LIG1        0.2531
     19 C           4.4810    1.2820    2.4629 C.2     1  LIG1        0.2734
     20 C           5.7156    0.8180    1.6906 C.3     1  LIG1        0.2479
     21 C           7.0721    1.3906    2.3808 C.3     1  LIG1        0.2131
     22 C           6.8727    2.2058    0.3317 C.2     1  LIG1        0.1849
     23 C           7.0430    2.9267   -0.9564 C.3     1  LIG1        0.0114
     24 H           7.8486    3.4475   -0.9273 H       1  LIG1        0.0324
     25 H           6.2918    3.5071   -1.0997 H       1  LIG1        0.0324
     26 H           7.0976    2.2916   -1.6744 H       1  LIG1        0.0324
     27 C           6.8459    2.2692    3.6330 C.3     1  LIG1       -0.0101
     28 H           6.4075    3.0891    3.3566 H       1  LIG1        0.0298
     29 H           6.2397    1.8016    4.2287 H       1  LIG1        0.0298
     30 C           8.1155    2.6409    4.4257 C.3     1  LIG1       -0.0438
     31 H           8.6374    1.8230    4.5667 H       1  LIG1        0.0296
     32 C           7.7148    3.1905    5.7929 C.3     1  LIG1       -0.0626
     33 H           8.5040    3.3778    6.3064 H       1  LIG1        0.0232
     34 H           7.1797    2.5407    6.2546 H       1  LIG1        0.0232
     35 H           7.2087    3.9978    5.6777 H       1  LIG1        0.0232
     36 C           9.0044    3.6536    3.7079 C.3     1  LIG1       -0.0626
     37 H           9.7426    3.8894    4.2749 H       1  LIG1        0.0232
     38 H           8.4935    4.4407    3.5042 H       1  LIG1        0.0232
     39 H           9.3363    3.2675    2.8935 H       1  LIG1        0.0232
     40 C           7.9803    0.2183    2.7556 C.2     1  LIG1        0.3398
     41 C           8.1759   -1.6237    4.2097 C.3     1  LIG1        0.0817
     42 H           7.8463   -1.9260    5.0591 H       1  LIG1        0.0661
     43 H           9.1146   -1.4364    4.2794 H       1  LIG1        0.0661
     44 H           8.0333   -2.3063    3.5504 H       1  LIG1        0.0661
     45 C           2.8252    0.9024    4.1972 C.3     1  LIG1        0.0113
     46 H           3.1716    1.6221    4.7301 H       1  LIG1        0.0433
     47 H           2.5051    0.2036    4.7718 H       1  LIG1        0.0433
     48 H           2.1032    1.2261    3.6541 H       1  LIG1        0.0433
@<TRIPOS>BOND
     1    26    23    1
     2    25    23    1
     3    23    24    1
     4    23    22    1
     5    12    11    1
     6    10     9    1
     7    11     9   ar
     8    11    13   ar
     9    22     3    1
    10    22     7    2
    11     9     8   ar
    12     3    20    1
    13    14    13    1
    14    13    15   ar
    15     7    21    1
    16     8    20    1
    17     8    17   ar
    18    20    21    1
    19    20    19    1
    20    15    17   ar
    21    15    16    1
    22     4    40    2
    23    17    18    1
    24    21    40    1
    25    21    27    1
    26     2    19    2
    27    19     6   am
    28    40     5    1
    29    39    36    1
    30    18     6   am
    31    18     1    2
    32     6    45    1
    33    28    27    1
    34    38    36    1
    35    44    41    1
    36    27    29    1
    37    27    30    1
    38    48    45    1
    39    36    37    1
    40    36    30    1
    41     5    41    1
    42    45    46    1
    43    45    47    1
    44    41    43    1
    45    41    42    1
    46    30    31    1
    47    30    32    1
    48    35    32    1
    49    32    34    1
    50    32    33    1
