@<TRIPOS>MOLECULE
Bis(dimethylammonium) 2,2'-(1,3,6,8-tetraoxo-2,7-diazapyrene-2,7-diyl)diacetate
 29 27 0 0 0
SMALL
GASTEIGER

@<TRIPOS>ATOM
      1 O           1.2488    5.3236    1.0224 O.co2   1  LIG1       -0.2445
      2 O          -0.2889    6.8601    1.5621 O.co2   1  LIG1       -0.2445
      3 O           1.3368    9.1951    3.4817 O.2     1  LIG1       -0.2687
      4 O          -3.3281   11.9422    7.9986 O.2     1  LIG1       -0.2832
      5 N           0.6824    7.0996    4.0866 N.am    1  LIG1       -0.2024
      6 N          -1.4910    6.0816   -0.7687 N.4     1  LIG1        0.2226
      7 H          -0.9330    6.2340    0.0530 H       1  LIG1        0.2008
      8 H          -2.1100    5.4191   -0.5314 H       1  LIG1        0.2008
      9 C           0.7540    6.1983    1.7718 C.2     1  LIG1        0.3748
     10 C           1.5435    6.5027    3.0597 C.3     1  LIG1        0.1357
     11 H           2.2136    7.1195    2.8955 H       1  LIG1        0.0600
     12 H           1.9458    5.7180    3.4395 H       1  LIG1        0.0600
     13 C           0.6049    8.4923    4.1510 C.2     1  LIG1        0.2600
     14 C          -0.4012    9.0638    5.0852 C.2     1  LIG1        0.0248
     15 C          -0.5383   10.4328    5.1985 C.2     1  LIG1       -0.0523
     16 H           0.0036   11.0124    4.6689 H       1  LIG1        0.0622
     17 C          -1.4753   10.9802    6.0925 C.2     1  LIG1       -0.0497
     18 H          -1.5494   11.9400    6.1330 H       1  LIG1        0.0625
     19 C          -2.2660   10.1571    6.8640 C.2     1  LIG1        0.0365
     20 C          -3.2334   10.7387    7.8265 C.2     1  LIG1        0.2336
     21 C          -1.2089    8.2048    5.8620 C.3     1  LIG1        0.0352
     22 C          -0.6255    5.5708   -1.8511 C.3     1  LIG1       -0.0451
     23 H          -1.1912    5.2678   -2.5623 H       1  LIG1        0.0777
     24 H          -0.0327    4.8418   -1.5109 H       1  LIG1        0.0777
     25 H          -0.1050    6.3360   -2.1445 H       1  LIG1        0.0777
     26 C          -2.1798    7.3394   -1.1393 C.3     1  LIG1       -0.0451
     27 H          -1.5255    8.0427   -1.3076 H       1  LIG1        0.0777
     28 H          -2.6810    7.1428   -1.9514 H       1  LIG1        0.0777
     29 H          -2.7863    7.6157   -0.4241 H       1  LIG1        0.0777
@<TRIPOS>BOND
     1    23    22    1
     2    25    22    1
     3    28    26    1
     4    22    24    1
     5    22     6    1
     6    27    26    1
     7    26     6    1
     8    26    29    1
     9     6     8    1
    10     6     7    1
    11     1     9   ar
    12     2     9   ar
    13     9    10    1
    14    11    10    1
    15    10    12    1
    16    10     5    1
    17     3    13    2
    18     5    13   am
    19    13    14    1
    20    16    15    1
    21    14    15    2
    22    14    21    1
    23    15    17    1
    24    17    18    1
    25    17    19    2
    26    19    20    1
    27    20     4    2
