@<TRIPOS>MOLECULE
Ethyltriphenylphosphonium bromide dihydrate
 48 47 0 0 0
SMALL
GASTEIGER

@<TRIPOS>ATOM
      1 P           0.9866    7.9575    4.3583 P.3     1  LIG1        0.1124
      2 C           1.2839    9.0644    5.7438 C.3     1  LIG1        0.0722
      3 H           0.7280    9.8761    5.6372 H       1  LIG1        0.0710
      4 H           1.0106    8.6169    6.5829 H       1  LIG1        0.0710
      5 C           2.7532    9.4697    5.8445 C.3     1  LIG1       -0.0298
      6 H           3.0194    9.9398    5.0273 H       1  LIG1        0.0265
      7 H           3.3064    8.6679    5.9554 H       1  LIG1        0.0265
      8 H           2.8768   10.0609    6.6163 H       1  LIG1        0.0265
      9 C           1.5218    8.8064    2.8742 C.ar    1  LIG1        0.1062
     10 C           0.8136    9.9587    2.5223 C.ar    1  LIG1       -0.0188
     11 H           0.0361   10.2062    3.0093 H       1  LIG1        0.0657
     12 C           1.2456   10.7368    1.4648 C.ar    1  LIG1       -0.0580
     13 H           0.7650   11.5177    1.2181 H       1  LIG1        0.0619
     14 C           2.3847   10.3714    0.7657 C.ar    1  LIG1       -0.0615
     15 H           2.6920   10.9123    0.0475 H       1  LIG1        0.0618
     16 C           3.0714    9.2329    1.1041 C.ar    1  LIG1       -0.0580
     17 H           3.8425    8.9840    0.6064 H       1  LIG1        0.0619
     18 C           2.6529    8.4422    2.1645 C.ar    1  LIG1       -0.0188
     19 H           3.1365    7.6597    2.4011 H       1  LIG1        0.0657
     20 C           1.8457    6.4074    4.6075 C.ar    1  LIG1        0.1062
     21 C           2.3014    6.0572    5.8745 C.ar    1  LIG1       -0.0188
     22 H           2.2140    6.6656    6.5987 H       1  LIG1        0.0657
     23 C           2.8844    4.8124    6.0739 C.ar    1  LIG1       -0.0580
     24 H           3.1990    4.5653    6.9362 H       1  LIG1        0.0619
     25 C           3.0042    3.9346    5.0132 C.ar    1  LIG1       -0.0615
     26 H           3.4112    3.0868    5.1503 H       1  LIG1        0.0618
     27 C           2.5442    4.2686    3.7625 C.ar    1  LIG1       -0.0580
     28 H           2.6365    3.6540    3.0445 H       1  LIG1        0.0619
     29 C           1.9440    5.5029    3.5456 C.ar    1  LIG1       -0.0188
     30 H           1.6048    5.7289    2.6877 H       1  LIG1        0.0657
     31 C          -0.7468    7.5286    4.2150 C.ar    1  LIG1        0.1062
     32 C          -1.5102    7.3778    5.3665 C.ar    1  LIG1       -0.0188
     33 H          -1.1497    7.6037    6.2155 H       1  LIG1        0.0657
     34 C          -2.8077    6.8925    5.2574 C.ar    1  LIG1       -0.0580
     35 H          -3.3451    6.7918    6.0345 H       1  LIG1        0.0619
     36 C          -3.3131    6.5586    4.0227 C.ar    1  LIG1       -0.0615
     37 H          -4.1973    6.2170    3.9568 H       1  LIG1        0.0618
     38 C          -2.5565    6.7108    2.8763 C.ar    1  LIG1       -0.0580
     39 H          -2.9235    6.4821    2.0302 H       1  LIG1        0.0619
     40 C          -1.2570    7.1990    2.9629 C.ar    1  LIG1       -0.0188
     41 H          -0.7271    7.3054    2.1814 H       1  LIG1        0.0657
     42 BR          3.9542    5.1986    0.2059 Br      2  LIG2        0.0000
     43 O           2.9191    1.9858    0.3913 O.3     3  HOH3       -0.4105
     44 H           2.1479    1.9092    0.0949 H       0  HOH0        0.2052
     45 H           2.9930    2.8166    0.3340 H       0  HOH0        0.2052
     46 O           0.5872    6.2614    0.2686 O.3     4  HOH4       -0.4105
     47 H           0.1497    5.5594    0.2092 H       0  HOH0        0.2052
     48 H           1.3821    6.0156    0.1828 H       0  HOH0        0.2052
@<TRIPOS>BOND
     1    15    14    1
     2    44    43    1
     3    48    46    1
     4    47    46    1
     5    45    43    1
     6    17    16    1
     7    14    16   ar
     8    14    12   ar
     9    16    18   ar
    10    13    12    1
    11    12    10   ar
    12    39    38    1
    13    18    19    1
    14    18     9   ar
    15    41    40    1
    16    10     9   ar
    17    10    11    1
    18    30    29    1
    19     9     1    1
    20    38    40   ar
    21    38    36   ar
    22    40    31   ar
    23    28    27    1
    24    29    27   ar
    25    29    20   ar
    26    27    25   ar
    27    37    36    1
    28    36    34   ar
    29    31     1    1
    30    31    32   ar
    31     1    20    1
    32     1     2    1
    33    20    21   ar
    34    25    26    1
    35    25    23   ar
    36     6     5    1
    37    34    32   ar
    38    34    35    1
    39    32    33    1
    40     3     2    1
    41     2     5    1
    42     2     4    1
    43     5     7    1
    44     5     8    1
    45    21    23   ar
    46    21    22    1
    47    23    24    1
