@<TRIPOS>MOLECULE
9-iodo-9,10-dihydro-9,10[1',2']-benzenoanthracene
 14 14 0 0 0
SMALL
GASTEIGER

@<TRIPOS>ATOM
      1 I          -0.0000   -0.0000    1.8194 I       1  LIG1       -0.0694
      2 C           0.7212    1.2006    5.9536 C.ar    1  LIG1       -0.0385
      3 C           0.7406    1.2054    4.5604 C.ar    1  LIG1       -0.0249
      4 C           1.3913    2.2253    3.8808 C.ar    1  LIG1       -0.0569
      5 H           1.4134    2.2319    2.9313 H       1  LIG1        0.0621
      6 C           2.0113    3.2408    4.6076 C.ar    1  LIG1       -0.0614
      7 H           2.4655    3.9370    4.1477 H       1  LIG1        0.0618
      8 C           1.9741    3.2481    5.9840 C.ar    1  LIG1       -0.0615
      9 H           2.3907    3.9535    6.4656 H       1  LIG1        0.0618
     10 C           1.3265    2.2220    6.6751 C.ar    1  LIG1       -0.0580
     11 H           1.2999    2.2227    7.6254 H       1  LIG1        0.0620
     12 C          -0.0000   -0.0000    3.9624 C.3     1  LIG1        0.0876
     13 C          -0.0000   -0.0000    6.5549 C.3     1  LIG1       -0.0008
     14 H          -0.0000   -0.0000    7.5547 H       1  LIG1        0.0361
@<TRIPOS>BOND
     1     1    12    1
     2     5     4    1
     3     4     3   ar
     4     4     6   ar
     5    12     3    1
     6     7     6    1
     7     3     2   ar
     8     6     8   ar
     9     2    13    1
    10     2    10   ar
    11     8     9    1
    12     8    10   ar
    13    13    14    1
    14    10    11    1
