@<TRIPOS>MOLECULE
2-Azido-1-(3,6-dichloro-9<i>H</i>-fluoren-1-yl)ethanone
 30 32 0 0 0
SMALL
GASTEIGER

@<TRIPOS>ATOM
      1 CL          8.4543    0.2853    5.3476 Cl      1  LIG1       -0.0835
      2 CL          6.6302   10.4052    5.1538 Cl      1  LIG1       -0.0835
      3 O           3.9189    5.1462    3.3999 O.2     1  LIG1       -0.2898
      4 N           1.4975    6.1177    4.2792 N.2     1  LIG1        0.1287
      5 N           1.3763    4.8967    4.3130 N.2     1  LIG1        0.2547
      6 N           1.1056    3.7915    4.2821 N.2     1  LIG1        0.3543
      7 C           8.0924    4.2502    5.1865 C.ar    1  LIG1       -0.0339
      8 C           8.6422    2.9825    5.3333 C.ar    1  LIG1       -0.0393
      9 H           9.5626    2.8669    5.5365 H       1  LIG1        0.0635
     10 C           7.8004    1.8922    5.1734 C.ar    1  LIG1        0.0413
     11 C           6.4443    2.0410    4.8815 C.ar    1  LIG1       -0.0428
     12 H           5.8921    1.2736    4.7832 H       1  LIG1        0.0632
     13 C           5.9029    3.3129    4.7352 C.ar    1  LIG1       -0.0524
     14 H           4.9798    3.4204    4.5364 H       1  LIG1        0.0624
     15 C           6.7263    4.4348    4.8833 C.ar    1  LIG1       -0.0134
     16 C           6.4608    5.8884    4.8317 C.ar    1  LIG1       -0.0035
     17 C           5.2953    6.6554    4.6162 C.ar    1  LIG1        0.0289
     18 C           5.3712    8.0482    4.7328 C.ar    1  LIG1       -0.0322
     19 H           4.5885    8.5726    4.6120 H       1  LIG1        0.0639
     20 C           6.5788    8.6708    5.0235 C.ar    1  LIG1        0.0419
     21 C           7.7444    7.9415    5.2152 C.ar    1  LIG1       -0.0393
     22 H           8.5690    8.3744    5.4015 H       1  LIG1        0.0635
     23 C           7.6664    6.5608    5.1266 C.ar    1  LIG1       -0.0333
     24 C           8.7865    5.5782    5.3323 C.3     1  LIG1       -0.0012
     25 H           9.1880    5.6758    6.2319 H       1  LIG1        0.0362
     26 H           9.4922    5.6908    4.6475 H       1  LIG1        0.0362
     27 C           3.9923    6.0558    4.2018 C.2     1  LIG1        0.1919
     28 C           2.7405    6.6376    4.8483 C.3     1  LIG1        0.1847
     29 H           2.7578    6.4370    5.8174 H       1  LIG1        0.0663
     30 H           2.7541    7.6226    4.7436 H       1  LIG1        0.0663
@<TRIPOS>BOND
     1     3    27    2
     2    27    17    1
     3    27    28    1
     4     4     5    2
     5     4    28    1
     6     6     5    2
     7    14    13    1
     8    19    18    1
     9    17    18   ar
    10    17    16   ar
    11    26    24    1
    12    18    20   ar
    13    13    11   ar
    14    13    15   ar
    15    30    28    1
    16    12    11    1
    17    16    15    1
    18    16    23   ar
    19    28    29    1
    20    11    10   ar
    21    15     7   ar
    22    20     2    1
    23    20    21   ar
    24    23    21   ar
    25    23    24    1
    26    10     8   ar
    27    10     1    1
    28     7    24    1
    29     7     8   ar
    30    21    22    1
    31    24    25    1
    32     8     9    1
