@<TRIPOS>MOLECULE
2-[5-Methyl-2-(propan-2-yl)phenoxy]-<i>N</i>'- {2-[5-methyl-2-(propan-2-yl)phenoxy]acetyl}acetohydrazide
 31 31 0 0 0
SMALL
GASTEIGER

@<TRIPOS>ATOM
      1 O          14.3258    3.8223    1.4909 O.3     1  LIG1       -0.4824
      2 O          13.3570    4.7659   -1.6147 O.2     1  LIG1       -0.2705
      3 N          12.3921    5.4263    0.3214 N.am    1  LIG1       -0.2315
      4 C          14.7091    3.0152    3.6604 C.ar    1  LIG1       -0.0031
      5 C          15.5451    2.9178    4.7691 C.ar    1  LIG1       -0.0546
      6 H          15.2515    2.4478    5.5163 H       1  LIG1        0.0622
      7 C          16.8120    3.5054    4.7927 C.ar    1  LIG1       -0.0583
      8 H          17.3473    3.4183    5.5484 H       1  LIG1        0.0620
      9 C          17.2777    4.2164    3.6986 C.ar    1  LIG1       -0.0470
     10 C          16.4545    4.3373    2.5715 C.ar    1  LIG1       -0.0167
     11 H          16.7526    4.8126    1.8292 H       1  LIG1        0.0657
     12 C          15.1922    3.7473    2.5582 C.ar    1  LIG1        0.1249
     13 C          14.6749    4.6706    0.4002 C.3     1  LIG1        0.1666
     14 H          15.3365    4.2365   -0.1612 H       1  LIG1        0.0795
     15 H          15.0509    5.5019    0.7305 H       1  LIG1        0.0795
     16 C          13.4134    4.9495   -0.3987 C.2     1  LIG1        0.2667
     17 C          13.3657    2.3190    3.5769 C.3     1  LIG1       -0.0181
     18 H          12.7709    2.8837    3.0389 H       1  LIG1        0.0345
     19 C          13.5359    0.9924    2.8381 C.3     1  LIG1       -0.0585
     20 H          13.8684    1.1589    1.9532 H       1  LIG1        0.0235
     21 H          12.6883    0.5458    2.7824 H       1  LIG1        0.0235
     22 H          14.1587    0.4382    3.3145 H       1  LIG1        0.0235
     23 C          12.6893    2.0896    4.9239 C.3     1  LIG1       -0.0585
     24 H          12.6340    2.9218    5.4002 H       1  LIG1        0.0235
     25 H          13.2028    1.4604    5.4366 H       1  LIG1        0.0235
     26 H          11.8056    1.7417    4.7832 H       1  LIG1        0.0235
     27 C          18.6388    4.8731    3.7055 C.3     1  LIG1       -0.0396
     28 H          19.1883    4.4651    4.3794 H       1  LIG1        0.0278
     29 H          18.5416    5.8090    3.8959 H       1  LIG1        0.0278
     30 H          19.0514    4.7622    2.8457 H       1  LIG1        0.0278
     31 H          12.4948    5.7114    1.1707 H       1  LIG1        0.1729
@<TRIPOS>BOND
     1     2    16    2
     2    16     3   am
     3    16    13    1
     4    14    13    1
     5     3    31    1
     6    13    15    1
     7    13     1    1
     8     1    12    1
     9    11    10    1
    10    20    19    1
    11    12    10   ar
    12    12     4   ar
    13    10     9   ar
    14    21    19    1
    15    19    22    1
    16    19    17    1
    17    30    27    1
    18    18    17    1
    19    17     4    1
    20    17    23    1
    21     4     5   ar
    22     9    27    1
    23     9     7   ar
    24    27    29    1
    25    27    28    1
    26     5     7   ar
    27     5     6    1
    28    26    23    1
    29     7     8    1
    30    23    24    1
    31    23    25    1
