@<TRIPOS>MOLECULE
(7<i>R</i>,8<i>S</i>,9<i>S</i>,12<i>S</i>)- 1-(4-Chlorobenzyloxy)-13,14-didehydro-12-hydroxy- 2,13-dimethoxy-<i>N</i>-methylmorphinane
 62 66 0 0 0
SMALL
GASTEIGER

@<TRIPOS>ATOM
      1 CL          6.3350    7.6506   33.7670 Cl      1  LIG1       -0.0835
      2 N          10.2939    1.8368   25.6980 N.3     1  LIG1       -0.3015
      3 O           6.4512    3.7210   28.5521 O.3     1  LIG1       -0.4834
      4 O           5.2754    1.8365   30.0217 O.3     1  LIG1       -0.4914
      5 O           4.6157    3.8694   25.7989 O.3     1  LIG1       -0.3841
      6 H           4.0520    3.4559   25.3714 H       1  LIG1        0.2104
      7 O           4.8366    3.0070   23.1351 O.2     1  LIG1       -0.4971
      8 C           6.3973    2.4448   28.0635 C.ar    1  LIG1        0.1663
      9 C           5.8274    1.4415   28.8389 C.ar    1  LIG1        0.1618
     10 C           5.8883    0.1415   28.4062 C.ar    1  LIG1       -0.0160
     11 H           5.4495   -0.5339   28.8731 H       1  LIG1        0.0655
     12 C           6.6104   -0.1474   27.2722 C.ar    1  LIG1       -0.0546
     13 H           6.6667   -1.0326   26.9950 H       1  LIG1        0.0622
     14 C           7.2506    0.8140   26.5334 C.ar    1  LIG1       -0.0384
     15 C           7.0875    2.1563   26.8792 C.ar    1  LIG1        0.0081
     16 C           7.8057    3.2539   26.0944 C.3     1  LIG1        0.0113
     17 C           8.2656    2.7406   24.7164 C.3     1  LIG1        0.0063
     18 H           8.8441    3.4267   24.3222 H       1  LIG1        0.0368
     19 C           9.0955    1.4962   24.9002 C.3     1  LIG1        0.0213
     20 H           9.4062    1.2209   24.0118 H       1  LIG1        0.0472
     21 C           8.1867    0.3904   25.4248 C.3     1  LIG1       -0.0110
     22 H           7.6574    0.0488   24.6885 H       1  LIG1        0.0329
     23 H           8.7403   -0.3367   25.7502 H       1  LIG1        0.0329
     24 C           6.9438    4.4846   25.7915 C.3     1  LIG1       -0.0094
     25 H           6.6667    4.8818   26.6318 H       1  LIG1        0.0303
     26 H           7.4903    5.1376   25.3249 H       1  LIG1        0.0303
     27 C           5.6985    4.2065   24.9514 C.3     1  LIG1        0.1125
     28 H           5.4635    5.0351   24.4836 H       1  LIG1        0.0675
     29 C           5.9515    3.1544   23.9124 C.2     1  LIG1        0.1221
     30 C           7.1046    2.5336   23.7799 C.2     1  LIG1       -0.0385
     31 H           7.2077    1.9373   23.0743 H       1  LIG1        0.0609
     32 C           9.0846    3.6150   26.8674 C.3     1  LIG1       -0.0297
     33 H           9.5546    4.3246   26.4021 H       1  LIG1        0.0286
     34 H           8.8480    3.9400   27.7493 H       1  LIG1        0.0286
     35 C           9.9980    2.4087   27.0015 C.3     1  LIG1       -0.0003
     36 H          10.8248    2.6752   27.4327 H       1  LIG1        0.0427
     37 H           9.5702    1.7392   27.5600 H       1  LIG1        0.0427
     38 C           4.7695    0.8823   30.8931 C.3     1  LIG1        0.0790
     39 H           3.9763    0.4938   30.5184 H       1  LIG1        0.0660
     40 H           4.5571    1.2961   31.7322 H       1  LIG1        0.0660
     41 H           5.4269    0.1962   31.0337 H       1  LIG1        0.0660
     42 C           4.8827    1.9988   22.1389 C.3     1  LIG1        0.0784
     43 H           5.5947    2.1901   21.5252 H       1  LIG1        0.0660
     44 H           4.0481    1.9783   21.6649 H       1  LIG1        0.0660
     45 H           5.0373    1.1468   22.5527 H       1  LIG1        0.0660
     46 C          11.2292    0.7330   25.8222 C.3     1  LIG1       -0.0124
     47 H          10.8951    0.1005   26.4611 H       1  LIG1        0.0391
     48 H          12.0802    1.0667   26.1165 H       1  LIG1        0.0391
     49 H          11.3315    0.3035   24.9710 H       1  LIG1        0.0391
     50 C           5.1958    4.3909   28.8827 C.3     1  LIG1        0.1148
     51 H           4.4978    3.7380   29.0500 H       1  LIG1        0.0748
     52 H           4.9147    4.9638   28.1529 H       1  LIG1        0.0748
     53 C           5.4628    5.1990   30.1092 C.ar    1  LIG1       -0.0103
     54 C           6.1904    6.3653   30.0245 C.ar    1  LIG1       -0.0540
     55 H           6.4933    6.6552   29.1959 H       1  LIG1        0.0622
     56 C           6.4754    7.1042   31.1414 C.ar    1  LIG1       -0.0430
     57 H           6.9789    7.8830   31.0709 H       1  LIG1        0.0632
     58 C           6.0163    6.6894   32.3536 C.ar    1  LIG1        0.0410
     59 C           5.2887    5.5416   32.4818 C.ar    1  LIG1       -0.0430
     60 H           4.9803    5.2664   33.3153 H       1  LIG1        0.0632
     61 C           5.0185    4.7940   31.3500 C.ar    1  LIG1       -0.0540
     62 H           4.5306    4.0064   31.4279 H       1  LIG1        0.0622
@<TRIPOS>BOND
     1    43    42    1
     2    44    42    1
     3    42    45    1
     4    42     7    1
     5    31    30    1
     6     7    29    1
     7    30    29    2
     8    30    17    1
     9    29    27    1
    10    20    19    1
    11    18    17    1
    12    28    27    1
    13    22    21    1
    14    17    19    1
    15    17    16    1
    16    19    21    1
    17    19     2    1
    18    27    24    1
    19    27     5    1
    20    49    46    1
    21    26    24    1
    22     6     5    1
    23    21    23    1
    24    21    14    1
    25     2    46    1
    26     2    35    1
    27    24    16    1
    28    24    25    1
    29    46    48    1
    30    46    47    1
    31    16    32    1
    32    16    15    1
    33    33    32    1
    34    14    15   ar
    35    14    12   ar
    36    32    35    1
    37    32    34    1
    38    15     8   ar
    39    13    12    1
    40    35    36    1
    41    35    37    1
    42    12    10   ar
    43     8     3    1
    44     8     9   ar
    45    52    50    1
    46    10     9   ar
    47    10    11    1
    48     3    50    1
    49     9     4    1
    50    50    51    1
    51    50    53    1
    52    55    54    1
    53     4    38    1
    54    54    53   ar
    55    54    56   ar
    56    53    61   ar
    57    39    38    1
    58    38    41    1
    59    38    40    1
    60    57    56    1
    61    56    58   ar
    62    61    62    1
    63    61    59   ar
    64    58    59   ar
    65    58     1    1
    66    59    60    1
