@<TRIPOS>MOLECULE
3-Hydroxy-2-[(2<i>E</i>)-1-(2-hydroxy-6-oxocyclohex-1-en-1-yl)-3-(2-methoxy phenyl)prop-2-en-1-yl]cyclohex-2-en-1-one
 51 53 0 0 0
SMALL
GASTEIGER

@<TRIPOS>ATOM
      1 O           1.2732    0.7204   -1.1441 O.3     1  LIG1       -0.4945
      2 O           2.1686    2.3549    3.4279 O.2     1  LIG1       -0.2967
      3 O           4.2769    5.7081    0.9255 O.3     1  LIG1       -0.3847
      4 O           4.4184    1.3561    4.2473 O.2     1  LIG1       -0.5106
      5 O           6.4841    5.0352    2.2171 O.2     1  LIG1       -0.2923
      6 C           0.2193    0.5945   -2.0849 C.3     1  LIG1        0.0788
      7 C           1.9086   -0.4094   -0.7141 C.ar    1  LIG1        0.1272
      8 C           1.5936   -1.6844   -1.1490 C.ar    1  LIG1       -0.0194
      9 C           2.2720   -2.7746   -0.6460 C.ar    1  LIG1       -0.0583
     10 C           3.2508   -2.6154    0.2993 C.ar    1  LIG1       -0.0610
     11 C           3.5674   -1.3374    0.7318 C.ar    1  LIG1       -0.0511
     12 C           2.9205   -0.2122    0.2423 C.ar    1  LIG1        0.0164
     13 C           3.1980    1.1498    0.7286 C.2     1  LIG1       -0.0544
     14 C           4.2804    1.5651    1.3529 C.2     1  LIG1       -0.0747
     15 C           4.5377    2.9910    1.8254 C.3     1  LIG1        0.0251
     16 C           5.4961    3.0474    3.0150 C.2     1  LIG1        0.0400
     17 C           5.4058    2.1716    4.0893 C.2     1  LIG1        0.1011
     18 C           6.4369    2.1281    5.1700 C.3     1  LIG1        0.0055
     19 C           7.7485    2.7359    4.7381 C.3     1  LIG1       -0.0392
     20 C           7.5191    4.0991    4.1252 C.3     1  LIG1        0.0107
     21 C           6.4608    4.0707    3.0553 C.2     1  LIG1        0.1630
     22 C           2.1679    3.4143    2.7079 C.2     1  LIG1        0.1442
     23 C           0.9054    4.2291    2.7236 C.3     1  LIG1        0.0066
     24 C           0.7399    5.0270    1.4565 C.3     1  LIG1       -0.0436
     25 C           1.9673    5.8865    1.2629 C.3     1  LIG1       -0.0199
     26 C           3.2353    5.1127    1.3872 C.3     1  LIG1        0.1097
     27 C           3.2789    3.8303    1.9563 C.3     1  LIG1        0.0865
     28 H          -0.4500    0.0000   -1.7379 H       1  LIG1        0.0660
     29 H           0.5648    0.2422   -2.9071 H       1  LIG1        0.0660
     30 H          -0.1715    1.4570   -2.2454 H       1  LIG1        0.0660
     31 H           0.9230   -1.8064   -1.7815 H       1  LIG1        0.0654
     32 H           4.9511    5.3602    1.2376 H       1  LIG1        0.2103
     33 H           2.0633   -3.6273   -0.9526 H       1  LIG1        0.0619
     34 H           3.7687    1.6281    3.8277 H       1  LIG1        0.2917
     35 H           3.6964   -3.3538    0.6457 H       1  LIG1        0.0618
     36 H           4.2354   -1.2304    1.3699 H       1  LIG1        0.0625
     37 H           2.5021    1.7775    0.6123 H       1  LIG1        0.0622
     38 H           4.9984    0.9532    1.5008 H       1  LIG1        0.0579
     39 H           5.0345    3.4068    1.0907 H       1  LIG1        0.0404
     40 H           6.5849    1.2063    5.4318 H       1  LIG1        0.0343
     41 H           6.1051    2.6066    5.9451 H       1  LIG1        0.0343
     42 H           8.1780    2.1559    4.0895 H       1  LIG1        0.0273
     43 H           8.3370    2.8187    5.5045 H       1  LIG1        0.0273
     44 H           7.2519    4.7203    4.8210 H       1  LIG1        0.0345
     45 H           8.3502    4.4203    3.7419 H       1  LIG1        0.0345
     46 H           0.9244    4.8336    3.4816 H       1  LIG1        0.0342
     47 H           0.1438    3.6382    2.8315 H       1  LIG1        0.0342
     48 H          -0.0503    5.5868    1.5183 H       1  LIG1        0.0270
     49 H           0.6314    4.4287    0.7010 H       1  LIG1        0.0270
     50 H           1.9313    6.2966    0.3854 H       1  LIG1        0.0294
     51 H           1.9636    6.5967    1.9226 H       1  LIG1        0.0294
@<TRIPOS>BOND
     1    29     6    1
     2    30     6    1
     3     6    28    1
     4     6     1    1
     5    31     8    1
     6     8     7   ar
     7     8     9   ar
     8     1     7    1
     9    33     9    1
    10     7    12   ar
    11     9    10   ar
    12    12    13    1
    13    12    11   ar
    14    10    35    1
    15    10    11   ar
    16    50    25    1
    17    37    13    1
    18    49    24    1
    19    13    14    2
    20    11    36    1
    21     3    32    1
    22     3    26    1
    23    39    15    1
    24    25    26    1
    25    25    24    1
    26    25    51    1
    27    14    38    1
    28    14    15    1
    29    26    27    1
    30    24    48    1
    31    24    23    1
    32    15    27    1
    33    15    16    1
    34    27    22    1
    35     5    21    2
    36    22    23    1
    37    22     2    2
    38    23    47    1
    39    23    46    1
    40    16    21    1
    41    16    17    2
    42    21    20    1
    43    45    20    1
    44    34     4    1
    45    17     4    1
    46    17    18    1
    47    42    19    1
    48    20    19    1
    49    20    44    1
    50    19    18    1
    51    19    43    1
    52    18    40    1
    53    18    41    1
