@<TRIPOS>MOLECULE
2-Ethylpiperidinium chloride
 25 24 0 0 0
SMALL
GASTEIGER

@<TRIPOS>ATOM
      1 N           9.6751    1.2767    6.9229 N.4     1  LIG1        0.2291
      2 C          10.9141    1.8468    7.5314 C.3     1  LIG1       -0.0334
      3 H          11.7105    1.4463    7.1025 H       1  LIG1        0.0814
      4 H          10.9408    1.6298    8.4974 H       1  LIG1        0.0814
      5 C          10.9364    3.3546    7.3449 C.3     1  LIG1       -0.0124
      6 H          10.9964    3.5671    6.3799 H       1  LIG1        0.0317
      7 H          11.7347    3.7310    7.7930 H       1  LIG1        0.0317
      8 C           9.6770    3.9890    7.9290 C.3     1  LIG1       -0.0432
      9 H           9.6797    4.9617    7.7472 H       1  LIG1        0.0269
     10 H           9.6651    3.8598    8.9107 H       1  LIG1        0.0269
     11 C           8.4251    3.3566    7.3128 C.3     1  LIG1       -0.0095
     12 H           7.6198    3.7447    7.7406 H       1  LIG1        0.0320
     13 H           8.3919    3.5758    6.3479 H       1  LIG1        0.0320
     14 C           8.4016    1.8406    7.4832 C.3     1  LIG1       -0.0229
     15 H           8.3556    1.6269    8.4588 H       1  LIG1        0.0850
     16 C           7.2424    1.1443    6.7729 C.3     1  LIG1       -0.0125
     17 H           7.2882    1.3487    5.8051 H       1  LIG1        0.0317
     18 H           7.3414    0.1649    6.8798 H       1  LIG1        0.0317
     19 C           5.8746    1.5639    7.3022 C.3     1  LIG1       -0.0602
     20 H           5.1751    1.0794    6.8173 H       1  LIG1        0.0232
     21 H           5.7560    2.5277    7.1709 H       1  LIG1        0.0232
     22 H           5.8165    1.3546    8.2580 H       1  LIG1        0.0232
     23 H           9.6869    0.4001    7.0501 H       1  LIG1        0.2016
     24 H           9.6990    1.4405    6.0394 H       1  LIG1        0.2016
     25 CL          9.7098    1.7768    3.8486 Cl      2  LIG2        0.0000
@<TRIPOS>BOND
     1    17    16    1
     2    24     1    1
     3    13    11    1
     4     6     5    1
     5    16    18    1
     6    16    19    1
     7    16    14    1
     8    20    19    1
     9     1    23    1
    10     1    14    1
    11     1     2    1
    12     3     2    1
    13    21    19    1
    14    19    22    1
    15    11    14    1
    16    11    12    1
    17    11     8    1
    18     5     2    1
    19     5     7    1
    20     5     8    1
    21    14    15    1
    22     2     4    1
    23     9     8    1
    24     8    10    1
