@<TRIPOS>MOLECULE
4-(1,3-Benzothiazol-2-yl)-1,5-dimethyl-2-phenyl-1<i>H</i>-pyrazol- 3(2<i>H</i>)-one
 38 41 0 0 0
SMALL
GASTEIGER

@<TRIPOS>ATOM
      1 S           7.8758   12.0240    1.3632 S.2     1  LIG1       -0.0670
      2 N           6.6344   11.1185    3.4625 N.ar    1  LIG1       -0.2388
      3 N           5.5093   15.5970    2.6337 N.ar    1  LIG1       -0.2167
      4 N           4.8316   15.0794    3.7429 N.ar    1  LIG1       -0.2834
      5 O           6.9209   14.7033    1.0354 O.2     1  LIG1       -0.2651
      6 C           8.1157   10.3703    1.7979 C.ar    1  LIG1        0.0395
      7 C           8.9087    9.4145    1.1701 C.ar    1  LIG1       -0.0459
      8 H           9.4151    9.6324    0.4206 H       1  LIG1        0.0629
      9 C           8.9232    8.1463    1.6867 C.ar    1  LIG1       -0.0606
     10 H           9.4513    7.4947    1.2861 H       1  LIG1        0.0618
     11 C           8.1636    7.8221    2.7939 C.ar    1  LIG1       -0.0597
     12 H           8.1758    6.9487    3.1151 H       1  LIG1        0.0618
     13 C           7.3903    8.7632    3.4321 C.ar    1  LIG1       -0.0352
     14 H           6.8892    8.5327    4.1808 H       1  LIG1        0.0639
     15 C           7.3693   10.0677    2.9376 C.ar    1  LIG1        0.0789
     16 C           6.8102   12.1943    2.7476 C.ar    1  LIG1        0.1164
     17 C           6.3102   14.5825    2.0928 C.ar    1  LIG1        0.2818
     18 C           6.1796   13.4746    2.9901 C.ar    1  LIG1        0.0937
     19 C           5.3138   13.8436    3.9930 C.ar    1  LIG1        0.0479
     20 C           4.9291   13.1196    5.2286 C.3     1  LIG1       -0.0219
     21 H           3.9733   13.0424    5.2701 H       1  LIG1        0.0293
     22 H           5.2450   13.6038    5.9946 H       1  LIG1        0.0293
     23 H           5.3209   12.2440    5.2210 H       1  LIG1        0.0293
     24 C           4.2243   15.9962    4.6885 C.3     1  LIG1        0.0291
     25 H           4.0325   15.5329    5.5063 H       1  LIG1        0.0472
     26 H           3.4089   16.3442    4.3190 H       1  LIG1        0.0472
     27 H           4.8288   16.7202    4.8660 H       1  LIG1        0.0472
     28 C           4.9138   16.6033    1.8131 C.ar    1  LIG1        0.0673
     29 C           3.5804   16.5484    1.4608 C.ar    1  LIG1       -0.0362
     30 H           3.0271   15.8832    1.8000 H       1  LIG1        0.0639
     31 C           3.0828   17.5032    0.5933 C.ar    1  LIG1       -0.0598
     32 H           2.1871   17.4800    0.3433 H       1  LIG1        0.0618
     33 C           3.9077   18.4924    0.0960 C.ar    1  LIG1       -0.0616
     34 H           3.5670   19.1309   -0.4869 H       1  LIG1        0.0618
     35 C           5.2257   18.5329    0.4600 C.ar    1  LIG1       -0.0598
     36 H           5.7798   19.1979    0.1209 H       1  LIG1        0.0618
     37 C           5.7360   17.5933    1.3234 C.ar    1  LIG1       -0.0362
     38 H           6.6306   17.6268    1.5755 H       1  LIG1        0.0639
@<TRIPOS>BOND
     1    34    33    1
     2    33    35   ar
     3    33    31   ar
     4    36    35    1
     5    32    31    1
     6     8     7    1
     7    35    37   ar
     8    31    29   ar
     9     5    17    2
    10     7     9   ar
    11     7     6   ar
    12    10     9    1
    13    37    38    1
    14    37    28   ar
    15     1     6   ar
    16     1    16   ar
    17    29    30    1
    18    29    28   ar
    19     9    11   ar
    20     6    15   ar
    21    28     3    1
    22    17     3   ar
    23    17    18   ar
    24     3     4   ar
    25    16    18    1
    26    16     2   ar
    27    11    12    1
    28    11    13   ar
    29    15    13   ar
    30    15     2   ar
    31    18    19   ar
    32    13    14    1
    33     4    19   ar
    34     4    24    1
    35    19    20    1
    36    26    24    1
    37    24    27    1
    38    24    25    1
    39    23    20    1
    40    20    21    1
    41    20    22    1
