@<TRIPOS>MOLECULE
Ethyl 6-amino-8-(4-chlorophenyl)-9-nitro-2,3,4,8- tetrahydropyrido[2,1-<i>b</i>][1,3]thiazine-7-carboxylate
 44 46 0 0 0
SMALL
GASTEIGER

@<TRIPOS>ATOM
      1 S           0.8063    1.8364   10.9810 S.3     1  LIG1       -0.0831
      2 CL         -2.2151    3.7540    2.9192 Cl      1  LIG1       -0.0835
      3 O           3.1180    7.0424    7.5102 O.2     1  LIG1       -0.2450
      4 C          -1.5776    4.0911    4.5088 C.ar    1  LIG1        0.0410
      5 C          -0.5947    3.2665    5.0221 C.ar    1  LIG1       -0.0431
      6 H          -0.2995    2.5244    4.5452 H       1  LIG1        0.0632
      7 C          -1.5030    5.4504    6.4601 C.ar    1  LIG1       -0.0562
      8 H          -1.8208    6.1769    6.9455 H       1  LIG1        0.0621
      9 C           1.9806    6.6332    7.6993 C.2     1  LIG1        0.3436
     10 C          -0.0597    3.5681    6.2623 C.ar    1  LIG1       -0.0562
     11 H           0.6109    3.0256    6.6109 H       1  LIG1        0.0621
     12 C          -2.0401    5.1709    5.2124 C.ar    1  LIG1       -0.0431
     13 H          -2.7073    5.7113    4.8574 H       1  LIG1        0.0632
     14 C           1.1754    8.6943    6.8376 C.3     1  LIG1        0.0900
     15 H           1.7053    8.6166    6.0292 H       1  LIG1        0.0695
     16 H           1.6649    9.2335    7.4780 H       1  LIG1        0.0695
     17 C           3.1228    2.0819    9.2422 C.3     1  LIG1        0.0869
     18 H           3.9036    2.2855    8.7044 H       1  LIG1        0.0730
     19 H           2.6548    1.3454    8.8177 H       1  LIG1        0.0730
     20 C           2.5681    4.4525    8.6039 C.2     1  LIG1        0.2719
     21 O           0.9031    7.3811    7.3897 O.3     1  LIG1       -0.4615
     22 O          -1.6262    2.6755   10.4871 O.2     1  LIG1       -0.1263
     23 O          -2.1931    4.5833    9.6227 O.2     1  LIG1       -0.1263
     24 C           0.1344    4.9963    8.3476 C.3     1  LIG1        0.0748
     25 H          -0.3245    5.7880    8.6980 H       1  LIG1        0.0469
     26 N          -1.3458    3.7052    9.8527 N.pl3   1  LIG1        0.0578
     27 C          -0.4952    4.6553    6.9949 C.ar    1  LIG1       -0.0333
     28 C           0.9695    3.0826    9.7710 C.2     1  LIG1        0.1823
     29 N           2.2368    3.2609    9.2609 N.pl3   1  LIG1       -0.1842
     30 C           1.6050    5.3358    8.2256 C.2     1  LIG1        0.1341
     31 C          -0.0427    3.8875    9.3445 C.2     1  LIG1        0.1667
     32 C           2.4969    1.8378   11.6051 C.3     1  LIG1        0.0049
     33 H           2.6514    2.6802   12.0606 H       1  LIG1        0.0382
     34 H           2.5774    1.1322   12.2659 H       1  LIG1        0.0382
     35 N           3.8905    4.6195    8.3548 N.pl3   1  LIG1       -0.2507
     36 H           4.4141    4.2815    8.9396 H       1  LIG1        0.2882
     37 H           4.0954    5.4073    8.0832 H       1  LIG1        0.2882
     38 C          -0.1473    9.3220    6.5328 C.3     1  LIG1       -0.0306
     39 H          -0.6452    8.7492    5.9448 H       1  LIG1        0.0262
     40 H          -0.0070   10.1722    6.1084 H       1  LIG1        0.0262
     41 H          -0.6370    9.4475    7.3486 H       1  LIG1        0.0262
     42 C           3.5679    1.6522   10.5883 C.3     1  LIG1       -0.0069
     43 H           4.3485    2.1655   10.8481 H       1  LIG1        0.0310
     44 H           3.8228    0.7162   10.5584 H       1  LIG1        0.0310
@<TRIPOS>BOND
     1     2     4    1
     2     4     5   ar
     3     4    12   ar
     4     6     5    1
     5    13    12    1
     6     5    10   ar
     7    12     7   ar
     8    39    38    1
     9    15    14    1
    10    40    38    1
    11    10    11    1
    12    10    27   ar
    13     7     8    1
    14     7    27   ar
    15    38    14    1
    16    38    41    1
    17    14    21    1
    18    14    16    1
    19    27    24    1
    20    21     9    1
    21     3     9    2
    22     9    30    1
    23    37    35    1
    24    30    24    1
    25    30    20    2
    26    24    25    1
    27    24    31    1
    28    35    20    1
    29    35    36    1
    30    20    29    1
    31    18    17    1
    32    19    17    1
    33    17    29    1
    34    17    42    1
    35    29    28    1
    36    31    28    2
    37    31    26    1
    38    23    26    2
    39    28     1    1
    40    26    22    2
    41    44    42    1
    42    42    43    1
    43    42    32    1
    44     1    32    1
    45    32    33    1
    46    32    34    1
