@<TRIPOS>MOLECULE
2,4,6-Trimethylanilinium chloroacetate
 31 30 0 0 0
SMALL
GASTEIGER

@<TRIPOS>ATOM
      1 C          -2.0907   -0.1129   12.5921 C.ar    1  LIG1       -0.0499
      2 H          -2.1444   -0.7313   13.2849 H       1  LIG1        0.0625
      3 C          -0.8539    0.4280   12.2685 C.ar    1  LIG1       -0.0495
      4 C          -0.7904    1.3581   11.2249 C.ar    1  LIG1       -0.0499
      5 H           0.0333    1.7278   11.0012 H       1  LIG1        0.0625
      6 C          -1.9200    1.7467   10.5120 C.ar    1  LIG1        0.0150
      7 C          -3.1438    1.1816   10.8784 C.ar    1  LIG1        0.1475
      8 C          -3.2508    0.2420   11.9119 C.ar    1  LIG1        0.0150
      9 C          -1.7708    2.7471    9.3873 C.3     1  LIG1       -0.0337
     10 H          -2.1958    3.5713    9.6341 H       1  LIG1        0.0280
     11 H          -2.1827    2.3987    8.5937 H       1  LIG1        0.0280
     12 H          -0.8375    2.9051    9.2209 H       1  LIG1        0.0280
     13 C          -4.5669   -0.4086   12.2888 C.3     1  LIG1       -0.0337
     14 H          -4.3966   -1.1873   12.8248 H       1  LIG1        0.0280
     15 H          -5.0357   -0.6643   11.4914 H       1  LIG1        0.0280
     16 H          -5.0992    0.2135   12.7891 H       1  LIG1        0.0280
     17 C           0.3918   -0.0104   13.0022 C.3     1  LIG1       -0.0397
     18 H           0.1936   -0.1153   13.9347 H       1  LIG1        0.0278
     19 H           1.0768    0.6525   12.8943 H       1  LIG1        0.0278
     20 H           0.6950   -0.8475   12.6445 H       1  LIG1        0.0278
     21 C          -5.1575    3.6544    7.5176 C.2     2  LIG2        0.3704
     22 C          -4.4815    4.3230    6.3420 C.3     2  LIG2        0.1239
     23 H          -5.1121    4.9408    5.9401 H       2  LIG2        0.0546
     24 H          -4.2804    3.6430    5.6809 H       2  LIG2        0.0546
     25 CL         -3.0025    5.2004    6.6963 Cl      2  LIG2       -0.1134
     26 N          -4.3627    1.5095   10.1116 N.pl3   1  LIG1       -0.4109
     27 H          -4.5253    0.8627    9.5214 H       1  LIG1        0.3712
     28 H          -4.2439    2.2796    9.6810 H       1  LIG1        0.3712
     29 H          -5.0516    1.5835   10.6688 H       1  LIG1        0.3712
     30 O          -6.0538    2.8548    7.2013 O.co2   2  LIG2       -0.2450
     31 O          -4.8105    3.9481    8.6866 O.co2   2  LIG2       -0.2450
@<TRIPOS>BOND
     1    24    22    1
     2    23    22    1
     3    22    25    1
     4    22    21    1
     5    30    21   ar
     6    21    31   ar
     7    11     9    1
     8    12     9    1
     9     9    10    1
    10     9     6    1
    11    27    26    1
    12    28    26    1
    13    26    29    1
    14    26     7    1
    15     6     7   ar
    16     6     4   ar
    17     7     8   ar
    18     5     4    1
    19     4     3   ar
    20    15    13    1
    21     8    13    1
    22     8     1   ar
    23     3     1   ar
    24     3    17    1
    25    13    16    1
    26    13    14    1
    27     1     2    1
    28    20    17    1
    29    19    17    1
    30    17    18    1
