@<TRIPOS>MOLECULE
Methyl 4-[(5-chloropyrimidin-2-yl)carbamoyl]benzoate
 30 31 0 0 0
SMALL
GASTEIGER

@<TRIPOS>ATOM
      1 CL          1.9104    2.9116    1.8140 Cl      1  LIG1       -0.0804
      2 C           4.0914    4.0722    2.8952 C.ar    1  LIG1        0.0510
      3 H           3.9282    3.5235    3.6288 H       1  LIG1        0.0846
      4 C           3.2483    4.0080    1.8120 C.ar    1  LIG1        0.0772
      5 C           3.5201    4.8347    0.7479 C.ar    1  LIG1        0.0510
      6 H           2.9716    4.7991   -0.0015 H       1  LIG1        0.0846
      7 C           5.3047    5.6792    1.8634 C.ar    1  LIG1        0.2218
      8 C           7.2540    6.9606    2.8090 C.2     1  LIG1        0.2504
      9 C           6.9049    6.7770    4.2530 C.ar    1  LIG1        0.0371
     10 C           7.8858    6.3087    5.1213 C.ar    1  LIG1       -0.0488
     11 H           8.7268    6.0834    4.7952 H       1  LIG1        0.0625
     12 C           7.6080    6.1789    6.4683 C.ar    1  LIG1       -0.0471
     13 H           8.2629    5.8602    7.0476 H       1  LIG1        0.0626
     14 C           6.3580    6.5220    6.9614 C.ar    1  LIG1        0.0590
     15 C           5.3957    7.0326    6.0978 C.ar    1  LIG1       -0.0471
     16 H           4.5669    7.2943    6.4297 H       1  LIG1        0.0626
     17 C           5.6674    7.1518    4.7487 C.ar    1  LIG1       -0.0488
     18 H           5.0184    7.4847    4.1726 H       1  LIG1        0.0625
     19 C           6.0650    6.3070    8.4088 C.2     1  LIG1        0.3389
     20 C           4.3971    6.3409   10.0787 C.3     1  LIG1        0.0820
     21 H           3.4401    6.3604   10.1466 H       1  LIG1        0.0661
     22 H           4.7715    7.0364   10.6255 H       1  LIG1        0.0661
     23 H           4.7223    5.4889   10.3783 H       1  LIG1        0.0661
     24 N           5.1354    4.8989    2.9242 N.ar    1  LIG1       -0.2211
     25 N           4.5466    5.6874    0.7579 N.ar    1  LIG1       -0.2211
     26 N           6.3751    6.5600    1.8257 N.am    1  LIG1       -0.2505
     27 H           6.5149    6.9184    1.0567 H       1  LIG1        0.1580
     28 O           8.2801    7.5316    2.4855 O.2     1  LIG1       -0.2698
     29 O           6.8784    5.9402    9.2210 O.2     1  LIG1       -0.2450
     30 O           4.7869    6.5486    8.7021 O.3     1  LIG1       -0.4645
@<TRIPOS>BOND
     1     6     5    1
     2     5    25   ar
     3     5     4   ar
     4    25     7   ar
     5    27    26    1
     6     4     1    1
     7     4     2   ar
     8    26     7    1
     9    26     8   am
    10     7    24   ar
    11    28     8    2
    12     8     9    1
    13     2    24   ar
    14     2     3    1
    15    18    17    1
    16     9    17   ar
    17     9    10   ar
    18    17    15   ar
    19    11    10    1
    20    10    12   ar
    21    15    16    1
    22    15    14   ar
    23    12    14   ar
    24    12    13    1
    25    14    19    1
    26    19    30    1
    27    19    29    2
    28    30    20    1
    29    20    21    1
    30    20    23    1
    31    20    22    1
