@<TRIPOS>MOLECULE
1-[3-(Hydroxymethyl)phenyl]-3-phenylurea
 32 33 0 0 0
SMALL
GASTEIGER

@<TRIPOS>ATOM
      1 C           1.5109    2.5554    1.3523 C.ar    1  LIG1        0.0348
      2 C           0.9934    1.9935    0.1957 C.ar    1  LIG1       -0.0404
      3 H           1.5546    1.8345   -0.5285 H       1  LIG1        0.0636
      4 C          -0.3449    1.6676    0.1076 C.ar    1  LIG1       -0.0600
      5 H          -0.6797    1.3000   -0.6779 H       1  LIG1        0.0618
      6 C          -1.1814    1.8832    1.1694 C.ar    1  LIG1       -0.0616
      7 H          -2.0815    1.6563    1.1142 H       1  LIG1        0.0618
      8 C          -0.6701    2.4431    2.3237 C.ar    1  LIG1       -0.0600
      9 H          -1.2338    2.5958    3.0464 H       1  LIG1        0.0618
     10 C           0.6649    2.7796    2.4218 C.ar    1  LIG1       -0.0404
     11 H           0.9938    3.1557    3.2062 H       1  LIG1        0.0636
     12 N           2.8713    2.9086    1.3280 N.am    1  LIG1       -0.2692
     13 H           3.2510    2.8984    0.5495 H       1  LIG1        0.1564
     14 C           3.7269    2.9691    2.3934 C.2     1  LIG1        0.3081
     15 O           3.3542    2.8991    3.5626 O.2     1  LIG1       -0.2522
     16 N           5.0241    3.1127    2.0120 N.am    1  LIG1       -0.2692
     17 H           5.1725    3.1387    1.1247 H       1  LIG1        0.1564
     18 C           6.1847    3.1083    2.8116 C.ar    1  LIG1        0.0351
     19 C           6.1874    3.1275    4.1943 C.ar    1  LIG1       -0.0404
     20 H           5.3862    3.1302    4.6658 H       1  LIG1        0.0636
     21 C           7.3976    3.1430    4.8690 C.ar    1  LIG1       -0.0597
     22 H           7.4006    3.1543    5.7987 H       1  LIG1        0.0618
     23 C           8.5940    3.1416    4.1928 C.ar    1  LIG1       -0.0563
     24 H           9.3960    3.1571    4.6635 H       1  LIG1        0.0621
     25 C           8.6030    3.1160    2.8071 C.ar    1  LIG1       -0.0204
     26 C           7.4005    3.0931    2.1334 C.ar    1  LIG1       -0.0351
     27 H           7.4013    3.0666    1.2041 H       1  LIG1        0.0640
     28 C           9.8960    3.1331    2.0367 C.3     1  LIG1        0.0693
     29 H          10.6258    3.3112    2.6508 H       1  LIG1        0.0607
     30 H          10.0431    2.2551    1.6509 H       1  LIG1        0.0607
     31 O           9.9225    4.1023    0.9976 O.3     1  LIG1       -0.3904
     32 H           9.6743    4.8424    1.3476 H       1  LIG1        0.2098
@<TRIPOS>BOND
     1     5     4    1
     2     3     2    1
     3     4     2   ar
     4     4     6   ar
     5     2     1   ar
     6    13    12    1
     7    31    32    1
     8    31    28    1
     9     7     6    1
    10    17    16    1
    11     6     8   ar
    12    27    26    1
    13    12     1    1
    14    12    14   am
    15     1    10   ar
    16    30    28    1
    17    16    14   am
    18    16    18    1
    19    28    29    1
    20    28    25    1
    21    26    25   ar
    22    26    18   ar
    23     8    10   ar
    24     8     9    1
    25    14    15    2
    26    10    11    1
    27    25    23   ar
    28    18    19   ar
    29    23    24    1
    30    23    21   ar
    31    19    20    1
    32    19    21   ar
    33    21    22    1
