@<TRIPOS>MOLECULE
4,4'-Bipyridine--pyridine-3,5-dicarboxylic acid (3/4)
 64 65 0 0 0
SMALL
GASTEIGER

@<TRIPOS>ATOM
      1 O           5.1833    4.0482   19.1709 O.2     1  LIG1       -0.2451
      2 O           5.0833    2.1839   20.4034 O.3     1  LIG1       -0.4771
      3 H           5.2557    2.6967   21.0197 H       1  LIG1        0.2954
      4 O           5.0796    3.1161   14.0583 O.2     1  LIG1       -0.2451
      5 O           4.8791    0.9604   13.5102 O.3     1  LIG1       -0.4771
      6 H           5.0024    1.2427   12.7508 H       1  LIG1        0.2954
      7 O           8.3312    2.3457    9.9846 O.3     2  LIG2       -0.4771
      8 H           8.3366    2.3218   10.8040 H       2  LIG2        0.2954
      9 O           8.9265    0.2105   10.1861 O.2     2  LIG2       -0.2451
     10 O           9.5031   -1.1527    3.9558 O.3     2  LIG2       -0.4771
     11 H           9.6871   -1.8674    3.6002 H       2  LIG2        0.2954
     12 O           9.5394   -2.3817    5.8212 O.2     2  LIG2       -0.2451
     13 N           3.9742   -0.1757   17.3160 N.ar    1  LIG1       -0.2616
     14 N           8.3391    2.2094    5.9148 N.ar    2  LIG2       -0.2616
     15 N          13.0752    8.5704    4.3825 N.ar    3  LIG3       -0.2632
     16 N          12.4909    7.1921   -2.5344 N.ar    3  LIG3       -0.2632
     17 N           6.1104    9.1423    2.8720 N.ar    4  LIG4       -0.2632
     18 C           5.0111    2.8570   19.2825 C.2     1  LIG1        0.3383
     19 C           4.6992    1.9707   18.1154 C.ar    1  LIG1        0.0776
     20 C           4.2152    0.6877   18.3057 C.ar    1  LIG1        0.0416
     21 H           4.0477    0.4102   19.1780 H       1  LIG1        0.0838
     22 C           4.2317    0.2467   16.0780 C.ar    1  LIG1        0.0416
     23 H           4.1034   -0.3505   15.3760 H       1  LIG1        0.0838
     24 C           4.6805    1.5247   15.7747 C.ar    1  LIG1        0.0776
     25 C           4.9049    2.3986   16.8196 C.ar    1  LIG1       -0.0308
     26 H           5.1924    3.2672   16.6512 H       1  LIG1        0.0635
     27 C           4.8960    1.9615   14.3556 C.2     1  LIG1        0.3383
     28 C           8.6604    1.1732    9.5122 C.2     2  LIG2        0.3383
     29 C           8.6756    1.1305    8.0163 C.ar    2  LIG2        0.0776
     30 C           8.3202    2.2310    7.2537 C.ar    2  LIG2        0.0416
     31 H           8.0585    3.0118    7.6871 H       2  LIG2        0.0838
     32 C           8.7270    1.0895    5.2962 C.ar    2  LIG2        0.0416
     33 H           8.7607    1.0835    4.3667 H       2  LIG2        0.0838
     34 C           9.0803   -0.0609    5.9779 C.ar    2  LIG2        0.0776
     35 C           9.0471   -0.0320    7.3600 C.ar    2  LIG2       -0.0308
     36 H           9.2734   -0.7905    7.8482 H       2  LIG2        0.0635
     37 C           9.4160   -1.3200    5.2477 C.2     2  LIG2        0.3383
     38 C          13.1184    7.3303    3.9034 C.ar    3  LIG3        0.0281
     39 H          13.2383    6.6305    4.5041 H       3  LIG3        0.0830
     40 C          12.9949    7.0270    2.5676 C.ar    3  LIG3       -0.0359
     41 H          13.0006    6.1407    2.2860 H       3  LIG3        0.0639
     42 C          12.8615    8.0580    1.6431 C.ar    3  LIG3       -0.0149
     43 C          12.7246    7.7719    0.1913 C.ar    3  LIG3       -0.0149
     44 C          12.3059    6.5203   -0.2576 C.ar    3  LIG3       -0.0359
     45 H          12.0935    5.8533    0.3544 H       3  LIG3        0.0639
     46 C          12.2078    6.2732   -1.6107 C.ar    3  LIG3        0.0281
     47 H          11.9324    5.4298   -1.8908 H       3  LIG3        0.0830
     48 C          12.8688    8.3981   -2.1157 C.ar    3  LIG3        0.0281
     49 H          13.0530    9.0519   -2.7506 H       3  LIG3        0.0830
     50 C          12.9990    8.7210   -0.7840 C.ar    3  LIG3       -0.0359
     51 H          13.2704    9.5748   -0.5376 H       3  LIG3        0.0639
     52 C          12.8571    9.3475    2.1489 C.ar    3  LIG3       -0.0359
     53 H          12.7962   10.0724    1.5703 H       3  LIG3        0.0639
     54 C          12.9421    9.5587    3.5078 C.ar    3  LIG3        0.0281
     55 H          12.9050   10.4317    3.8258 H       3  LIG3        0.0830
     56 C           6.0483    8.6107    1.6465 C.ar    4  LIG4        0.0281
     57 H           5.7848    7.7229    1.5585 H       4  LIG4        0.0830
     58 C           6.3584    9.3205    0.5086 C.ar    4  LIG4       -0.0359
     59 H           6.3090    8.9081   -0.3239 H       4  LIG4        0.0639
     60 C           6.7472   10.6563    0.5996 C.ar    4  LIG4       -0.0149
     61 C           6.7939   11.1990    1.8800 C.ar    4  LIG4       -0.0359
     62 H           7.0384   12.0880    2.0011 H       4  LIG4        0.0639
     63 C           6.4768   10.4158    2.9656 C.ar    4  LIG4        0.0281
     64 H           6.5215   10.7988    3.8122 H       4  LIG4        0.0830
@<TRIPOS>BOND
     1    49    48    1
     2    16    48   ar
     3    16    46   ar
     4    48    50   ar
     5    47    46    1
     6    46    44   ar
     7    50    51    1
     8    50    43   ar
     9    59    58    1
    10    44    43   ar
    11    44    45    1
    12    43    42    1
    13    58    60   ar
    14    58    56   ar
    15    60    61   ar
    16    57    56    1
    17    53    52    1
    18    42    52   ar
    19    42    40   ar
    20    56    17   ar
    21    61    62    1
    22    61    63   ar
    23    52    54   ar
    24    41    40    1
    25    40    38   ar
    26    17    63   ar
    27    63    64    1
    28    54    55    1
    29    54    15   ar
    30    11    10    1
    31    38    15   ar
    32    38    39    1
    33    10    37    1
    34    33    32    1
    35    37    12    2
    36    37    34    1
    37    32    14   ar
    38    32    34   ar
    39    14    30   ar
    40    34    35   ar
    41    30    31    1
    42    30    29   ar
    43    35    36    1
    44    35    29   ar
    45    29    28    1
    46    28     7    1
    47    28     9    2
    48     7     8    1
    49     6     5    1
    50     5    27    1
    51     4    27    2
    52    27    24    1
    53    23    22    1
    54    24    22   ar
    55    24    25   ar
    56    22    13   ar
    57    26    25    1
    58    25    19   ar
    59    13    20   ar
    60    19    20   ar
    61    19    18    1
    62    20    21    1
    63     1    18    2
    64    18     2    1
    65     2     3    1
