@<TRIPOS>MOLECULE
3-Allyl-6-bromo-1<i>H</i>-imidazo[4,5-<i>b</i>]pyridin-2(3<i>H</i>)-one
 22 23 0 0 0
SMALL
GASTEIGER

@<TRIPOS>ATOM
      1 BR          5.7391    1.4839    9.3857 Br      1  LIG1       -0.0487
      2 N           3.0311    6.0196   10.3872 N.ar    1  LIG1       -0.3046
      3 H           2.5413    5.8498   11.0735 H       1  LIG1        0.1705
      4 C           3.0598    7.2134    9.7213 C.ar    1  LIG1        0.3290
      5 O           2.4090    8.2229    9.9770 O.2     1  LIG1       -0.2465
      6 N           3.9782    7.0784    8.7015 N.ar    1  LIG1       -0.2730
      7 C           4.5047    5.8037    8.7206 C.ar    1  LIG1        0.1613
      8 N           5.4013    5.3171    7.8913 N.ar    1  LIG1       -0.2346
      9 C           5.7377    4.0321    8.1369 C.ar    1  LIG1        0.0440
     10 H           6.3669    3.6254    7.5870 H       1  LIG1        0.0841
     11 C           5.1911    3.2957    9.1691 C.ar    1  LIG1        0.0380
     12 C           4.2583    3.8301   10.0447 C.ar    1  LIG1       -0.0192
     13 H           3.8993    3.3433   10.7512 H       1  LIG1        0.0651
     14 C           3.9077    5.1210    9.7945 C.ar    1  LIG1        0.0873
     15 C           4.3432    8.1568    7.7797 C.3     1  LIG1        0.0474
     16 H           5.2811    8.0704    7.5476 H       1  LIG1        0.0537
     17 H           4.2256    9.0093    8.2282 H       1  LIG1        0.0537
     18 C           3.5258    8.1457    6.5255 C.2     1  LIG1       -0.0714
     19 H           3.4312    7.3372    6.0771 H       1  LIG1        0.0584
     20 C           2.9453    9.1795    6.0275 C.2     1  LIG1       -0.1010
     21 H           3.0195   10.0038    6.4512 H       1  LIG1        0.0532
     22 H           2.4515    9.1024    5.2432 H       1  LIG1        0.0532
@<TRIPOS>BOND
     1    22    20    1
     2    20    21    1
     3    20    18    2
     4    19    18    1
     5    18    15    1
     6    16    15    1
     7    10     9    1
     8    15    17    1
     9    15     6    1
    10     8     9   ar
    11     8     7   ar
    12     9    11   ar
    13     6     7   ar
    14     6     4   ar
    15     7    14   ar
    16    11     1    1
    17    11    12   ar
    18     4     5    2
    19     4     2   ar
    20    14    12   ar
    21    14     2   ar
    22    12    13    1
    23     2     3    1
