@<TRIPOS>MOLECULE
(<i>E</i>)-2-(4-Chlorobenzylidene)indan-1-one
 29 31 0 0 0
SMALL
GASTEIGER

@<TRIPOS>ATOM
      1 CL          4.5487   -0.5032    6.4506 Cl      1  LIG1       -0.0835
      2 O           2.3798    5.4283    0.2140 O.2     1  LIG1       -0.2870
      3 C           1.8414    1.8350    0.2213 C.3     1  LIG1        0.0019
      4 H           2.5757    1.1911    0.0556 H       1  LIG1        0.0363
      5 H           1.1456    1.3971    0.7726 H       1  LIG1        0.0363
      6 C           1.2640    2.3506   -1.0785 C.ar    1  LIG1       -0.0321
      7 C           0.6663    1.6106   -2.1062 C.ar    1  LIG1       -0.0576
      8 H           0.5753    0.6676   -2.0348 H       1  LIG1        0.0621
      9 C           0.2119    2.2815   -3.2246 C.ar    1  LIG1       -0.0615
     10 H          -0.1958    1.7886   -3.9270 H       1  LIG1        0.0618
     11 C           0.3382    3.6769   -3.3491 C.ar    1  LIG1       -0.0611
     12 H           0.0133    4.1220   -4.1229 H       1  LIG1        0.0618
     13 C           0.9463    4.3998   -2.3226 C.ar    1  LIG1       -0.0507
     14 H           1.0537    5.3405   -2.3976 H       1  LIG1        0.0625
     15 C           1.3892    3.7383   -1.2018 C.ar    1  LIG1        0.0254
     16 C           2.0792    4.2611   -0.0036 C.2     1  LIG1        0.1898
     17 C           2.3594    3.0970    0.8923 C.2     1  LIG1        0.0047
     18 C           2.9812    3.2798    2.0651 C.2     1  LIG1       -0.0474
     19 H           3.2416    4.1754    2.2440 H       1  LIG1        0.0627
     20 C           3.3228    2.3167    3.1133 C.ar    1  LIG1       -0.0246
     21 C           3.8913    2.7992    4.3055 C.ar    1  LIG1       -0.0532
     22 H           4.0320    3.7340    4.3998 H       1  LIG1        0.0624
     23 C           4.2509    1.9670    5.3380 C.ar    1  LIG1       -0.0428
     24 H           4.6253    2.3187    6.1372 H       1  LIG1        0.0632
     25 C           4.0550    0.6011    5.1881 C.ar    1  LIG1        0.0410
     26 C           3.5001    0.0746    4.0262 C.ar    1  LIG1       -0.0428
     27 H           3.3691   -0.8625    3.9403 H       1  LIG1        0.0632
     28 C           3.1395    0.9283    2.9948 C.ar    1  LIG1       -0.0532
     29 H           2.7644    0.5702    2.1981 H       1  LIG1        0.0624
@<TRIPOS>BOND
     1    12    11    1
     2    10     9    1
     3    11     9   ar
     4    11    13   ar
     5     9     7   ar
     6    14    13    1
     7    13    15   ar
     8     7     8    1
     9     7     6   ar
    10    15     6   ar
    11    15    16    1
    12     6     3    1
    13    16     2    2
    14    16    17    1
    15     4     3    1
    16     3     5    1
    17     3    17    1
    18    17    18    2
    19    18    19    1
    20    18    20    1
    21    29    28    1
    22    28    20   ar
    23    28    26   ar
    24    20    21   ar
    25    27    26    1
    26    26    25   ar
    27    21    22    1
    28    21    23   ar
    29    25    23   ar
    30    25     1    1
    31    23    24    1
