@<TRIPOS>MOLECULE
<i>N</i>-Benzyl-5-(dimethylamino)naphthalene-1-sulfonamide
 44 46 0 0 0
SMALL
GASTEIGER

@<TRIPOS>ATOM
      1 S          -0.1467    4.5701   10.2555 S.O2    1  LIG1        0.0593
      2 O          -0.6359    5.7647   10.8778 O.2     1  LIG1       -0.1530
      3 O          -0.8627    3.3377   10.4784 O.2     1  LIG1       -0.1530
      4 N           1.3591    4.3164   10.7812 N.3     1  LIG1       -0.1856
      5 H           1.5974    3.4986   10.6903 H       1  LIG1        0.1484
      6 N           0.8076    3.7422    3.8467 N.pl3   1  LIG1       -0.3355
      7 C           3.2388    5.5541   11.8424 C.ar    1  LIG1       -0.0319
      8 C           4.2331    6.5310   11.7930 C.ar    1  LIG1       -0.0573
      9 H           4.3498    7.0413   11.0003 H       1  LIG1        0.0621
     10 C           5.0525    6.7661   12.8822 C.ar    1  LIG1       -0.0615
     11 H           5.7171    7.4424   12.8406 H       1  LIG1        0.0618
     12 C           4.9012    6.0126   14.0373 C.ar    1  LIG1       -0.0617
     13 H           5.4699    6.1626   14.7827 H       1  LIG1        0.0618
     14 C           3.9192    5.0427   14.0973 C.ar    1  LIG1       -0.0615
     15 H           3.8125    4.5276   14.8889 H       1  LIG1        0.0618
     16 C           3.0811    4.8145   13.0020 C.ar    1  LIG1       -0.0573
     17 H           2.4038    4.1515   13.0530 H       1  LIG1        0.0621
     18 C           2.3655    5.3691   10.6214 C.3     1  LIG1        0.0425
     19 H           1.9064    6.2238   10.4237 H       1  LIG1        0.0490
     20 H           2.9406    5.1479    9.8472 H       1  LIG1        0.0490
     21 C          -0.0700    4.9058    8.5137 C.ar    1  LIG1        0.1130
     22 C          -0.4238    6.1709    8.1188 C.ar    1  LIG1       -0.0347
     23 H          -0.7135    6.8058    8.7634 H       1  LIG1        0.0637
     24 C          -0.3579    6.5291    6.7582 C.ar    1  LIG1       -0.0593
     25 H          -0.6012    7.4070    6.4875 H       1  LIG1        0.0618
     26 C           0.0533    5.6214    5.8296 C.ar    1  LIG1       -0.0521
     27 H           0.1107    5.8831    4.9182 H       1  LIG1        0.0624
     28 C           0.3987    4.2903    6.1942 C.ar    1  LIG1        0.0050
     29 C           0.8174    3.3345    5.2054 C.ar    1  LIG1        0.0371
     30 C           1.2528    2.0935    5.6142 C.ar    1  LIG1       -0.0401
     31 H           1.5778    1.4741    4.9702 H       1  LIG1        0.0636
     32 C           1.2215    1.7325    6.9780 C.ar    1  LIG1       -0.0594
     33 H           1.5217    0.8692    7.2374 H       1  LIG1        0.0618
     34 C           0.7675    2.5990    7.9354 C.ar    1  LIG1       -0.0520
     35 H           0.7240    2.3232    8.8436 H       1  LIG1        0.0624
     36 C           0.3605    3.9111    7.5730 C.ar    1  LIG1        0.0102
     37 C          -0.5325    3.8894    3.2641 C.3     1  LIG1        0.0004
     38 H          -0.8900    3.0047    3.0389 H       1  LIG1        0.0428
     39 H          -0.4777    4.4358    2.4537 H       1  LIG1        0.0428
     40 H          -1.1237    4.3257    3.9124 H       1  LIG1        0.0428
     41 C           1.6683    2.9790    2.9548 C.3     1  LIG1        0.0004
     42 H           2.5654    2.9109    3.3445 H       1  LIG1        0.0428
     43 H           1.7231    3.4316    2.0873 H       1  LIG1        0.0428
     44 H           1.2970    2.0810    2.8308 H       1  LIG1        0.0428
@<TRIPOS>BOND
     1    43    41    1
     2    39    37    1
     3    44    41    1
     4    41    42    1
     5    41     6    1
     6    38    37    1
     7    37     6    1
     8    37    40    1
     9     6    29    1
    10    27    26    1
    11    31    30    1
    12    29    30   ar
    13    29    28   ar
    14    30    32   ar
    15    26    28   ar
    16    26    24   ar
    17    28    36   ar
    18    25    24    1
    19    24    22   ar
    20    32    33    1
    21    32    34   ar
    22    36    34   ar
    23    36    21   ar
    24    34    35    1
    25    22    21   ar
    26    22    23    1
    27    21     1    1
    28    20    18    1
    29     1     3    2
    30     1     4    1
    31     1     2    2
    32    19    18    1
    33    18     4    1
    34    18     7    1
    35     5     4    1
    36     9     8    1
    37     8     7   ar
    38     8    10   ar
    39     7    16   ar
    40    11    10    1
    41    10    12   ar
    42    16    17    1
    43    16    14   ar
    44    12    14   ar
    45    12    13    1
    46    14    15    1
