@<TRIPOS>MOLECULE
Thieno[3,4-<i>d</i>][1,3]dithiole-2-thione
 11 12 0 0 0
SMALL
GASTEIGER

@<TRIPOS>ATOM
      1 S           0.0181   -1.7884    1.5068 S.2     1  LIG1       -0.1028
      2 S          -0.0511    2.4716    1.3745 S.2     1  LIG1       -0.0731
      3 S           1.1121    1.5582    3.9074 S.2     1  LIG1       -0.0731
      4 S           0.9959    4.4456    3.3132 S.2     1  LIG1       -0.0365
      5 C          -0.2929   -0.2889    0.7579 C.ar    1  LIG1       -0.0094
      6 C           0.0568    0.7451    1.5730 C.ar    1  LIG1        0.0345
      7 C           0.6000    0.2965    2.8168 C.ar    1  LIG1        0.0345
      8 C           0.6994    2.8952    2.8888 C.ar    1  LIG1        0.0944
      9 C           0.6347   -1.0546    2.9196 C.ar    1  LIG1       -0.0094
     10 H          -0.6623   -0.2778   -0.1096 H       1  LIG1        0.0705
     11 H           0.9068   -1.4999    3.6281 H       1  LIG1        0.0705
@<TRIPOS>BOND
     1    10     5    1
     2     5     1   ar
     3     5     6   ar
     4     2     6   ar
     5     2     8   ar
     6     1     9   ar
     7     6     7   ar
     8     7     9   ar
     9     7     3   ar
    10     8     4    2
    11     8     3   ar
    12     9    11    1
