@<TRIPOS>MOLECULE
4-Chloro-<i>N</i>-phenylbenzamide
 26 27 0 0 0
SMALL
GASTEIGER

@<TRIPOS>ATOM
      1 C          -0.7842    0.1077    6.1230 C.2     1  LIG1        0.2483
      2 C          -0.4452    0.5128    4.7217 C.ar    1  LIG1        0.0371
      3 C           0.6913    1.2532    4.4035 C.ar    1  LIG1       -0.0482
      4 H           1.2944    1.4838    5.0726 H       1  LIG1        0.0625
      5 C           0.9289    1.6481    3.0995 C.ar    1  LIG1       -0.0427
      6 H           1.6825    2.1509    2.8899 H       1  LIG1        0.0632
      7 C           0.0331    1.2863    2.1141 C.ar    1  LIG1        0.0410
      8 C          -1.0978    0.5465    2.4015 C.ar    1  LIG1       -0.0427
      9 H          -1.6900    0.3043    1.7264 H       1  LIG1        0.0632
     10 C          -1.3342    0.1720    3.7101 C.ar    1  LIG1       -0.0482
     11 H          -2.0991   -0.3153    3.9169 H       1  LIG1        0.0625
     12 C           0.2443   -0.4563    8.3093 C.ar    1  LIG1        0.0337
     13 C          -0.7838   -0.0579    9.1576 C.ar    1  LIG1       -0.0405
     14 H          -1.5106    0.4160    8.8231 H       1  LIG1        0.0636
     15 C          -0.7148   -0.3747   10.5034 C.ar    1  LIG1       -0.0600
     16 H          -1.3988   -0.1068   11.0734 H       1  LIG1        0.0618
     17 C           0.3562   -1.0843   11.0131 C.ar    1  LIG1       -0.0616
     18 H           0.3948   -1.2901   11.9197 H       1  LIG1        0.0618
     19 C           1.3714   -1.4852   10.1622 C.ar    1  LIG1       -0.0600
     20 H           2.0929   -1.9666   10.4988 H       1  LIG1        0.0618
     21 C           1.3202   -1.1768    8.8165 C.ar    1  LIG1       -0.0405
     22 H           2.0052   -1.4504    8.2498 H       1  LIG1        0.0636
     23 N           0.2794   -0.1063    6.9364 N.am    1  LIG1       -0.2815
     24 H           1.0578   -0.0209    6.5819 H       1  LIG1        0.1551
     25 O          -1.9494   -0.0234    6.4809 O.2     1  LIG1       -0.2699
     26 CL          0.3346    1.7963    0.4781 Cl      1  LIG1       -0.0835
@<TRIPOS>BOND
     1    26     7    1
     2     9     8    1
     3     7     8   ar
     4     7     5   ar
     5     8    10   ar
     6     6     5    1
     7     5     3   ar
     8    10    11    1
     9    10     2   ar
    10     3     2   ar
    11     3     4    1
    12     2     1    1
    13     1    25    2
    14     1    23   am
    15    24    23    1
    16    23    12    1
    17    22    21    1
    18    12    21   ar
    19    12    13   ar
    20    21    19   ar
    21    14    13    1
    22    13    15   ar
    23    19    20    1
    24    19    17   ar
    25    15    17   ar
    26    15    16    1
    27    17    18    1
