@<TRIPOS>MOLECULE
2-(4-Methylphenoxy)-5-nitropyridine
 27 28 0 0 0
SMALL
GASTEIGER

@<TRIPOS>ATOM
      1 O           4.0356    4.9616    8.3061 O.3     1  LIG1       -0.4380
      2 O           5.9835    7.1032   13.7016 O.2     1  LIG1       -0.1261
      3 O           5.1956    8.9083   12.8999 O.2     1  LIG1       -0.1261
      4 N           4.9363    4.9738   10.4299 N.ar    1  LIG1       -0.2187
      5 N           5.4512    7.7324   12.8053 N.pl3   1  LIG1        0.0579
      6 C           4.3727    5.6376    9.4324 C.ar    1  LIG1        0.2206
      7 C           4.1375    6.9958    9.4385 C.ar    1  LIG1        0.0026
      8 H           3.7465    7.4150    8.7068 H       1  LIG1        0.0671
      9 C           4.4914    7.7120   10.5412 C.ar    1  LIG1       -0.0249
     10 H           4.3531    8.6306   10.5836 H       1  LIG1        0.0642
     11 C           5.0608    7.0281   11.5907 C.ar    1  LIG1        0.1444
     12 C           5.2771    5.6903   11.5039 C.ar    1  LIG1        0.0616
     13 H           5.6783    5.2567   12.2219 H       1  LIG1        0.0854
     14 C           3.9183    3.5644    8.3251 C.ar    1  LIG1        0.1304
     15 C           4.5184    2.8673    7.3106 C.ar    1  LIG1       -0.0190
     16 H           5.0558    3.3045    6.6905 H       1  LIG1        0.0654
     17 C           4.3108    1.4995    7.2266 C.ar    1  LIG1       -0.0554
     18 H           4.7033    1.0264    6.5282 H       1  LIG1        0.0621
     19 C           3.5419    0.8204    8.1458 C.ar    1  LIG1       -0.0502
     20 C           2.9768    1.5582    9.1648 C.ar    1  LIG1       -0.0554
     21 H           2.4707    1.1210    9.8100 H       1  LIG1        0.0621
     22 C           3.1406    2.9248    9.2533 C.ar    1  LIG1       -0.0190
     23 H           2.7285    3.4063    9.9343 H       1  LIG1        0.0654
     24 C           3.3198   -0.6659    8.0578 C.3     1  LIG1       -0.0397
     25 H           3.4698   -1.0636    8.9198 H       1  LIG1        0.0278
     26 H           3.9300   -1.0432    7.4209 H       1  LIG1        0.0278
     27 H           2.4176   -0.8384    7.7785 H       1  LIG1        0.0278
@<TRIPOS>BOND
     1    18    17    1
     2    16    15    1
     3    17    15   ar
     4    17    19   ar
     5    15    14   ar
     6    26    24    1
     7    27    24    1
     8    24    19    1
     9    24    25    1
    10    19    20   ar
    11     1    14    1
    12     1     6    1
    13    14    22   ar
    14     8     7    1
    15    20    22   ar
    16    20    21    1
    17    22    23    1
    18     6     7   ar
    19     6     4   ar
    20     7     9   ar
    21     4    12   ar
    22     9    10    1
    23     9    11   ar
    24    12    11   ar
    25    12    13    1
    26    11     5    1
    27     5     3    2
    28     5     2    2
