@<TRIPOS>MOLECULE
(6a<i>S</i>*,6b<i>S</i>*,11<i>R</i>*,11a<i>R</i>*)-6-(2-Furylmethyl)-5,12- dioxo-5,6,6a,6b,7,11,11a,12-octahydrofuro[3',2':5,6]isoindolo[2,1- <i>a</i>]quinazoline-11-carboxylic acid
 49 54 0 0 0
SMALL
GASTEIGER

@<TRIPOS>ATOM
      1 O           5.8487    6.4260    3.1388 O.2     1  LIG1       -0.2699
      2 O           5.0290    9.1189    6.2511 O.2     1  LIG1       -0.4662
      3 O           3.9675   10.5509   -0.3084 O.2     1  LIG1       -0.2503
      4 O           2.8094   12.2774   -1.1340 O.3     1  LIG1       -0.4802
      5 H           2.6163   11.6556   -1.7967 H       1  LIG1        0.2951
      6 O           6.7292   11.8292    0.4123 O.2     1  LIG1       -0.2749
      7 C           8.7076    9.8105    1.3051 C.ar    1  LIG1       -0.0395
      8 H           8.8184   10.7026    0.9990 H       1  LIG1        0.0636
      9 C           9.7317    8.8746    1.1545 C.ar    1  LIG1       -0.0600
     10 H          10.5420    9.1363    0.7340 H       1  LIG1        0.0618
     11 C           9.5920    7.5682    1.6048 C.ar    1  LIG1       -0.0609
     12 H          10.3092    6.9516    1.5135 H       1  LIG1        0.0618
     13 C           8.4025    7.1687    2.1867 C.ar    1  LIG1       -0.0478
     14 H           8.2968    6.2737    2.4865 H       1  LIG1        0.0626
     15 C           7.3553    8.0837    2.3341 C.ar    1  LIG1        0.0584
     16 C           6.0900    7.6370    2.9408 C.2     1  LIG1        0.2502
     17 N           5.2036    8.5853    3.3164 N.am    1  LIG1       -0.2708
     18 C           5.4949   10.0237    3.2141 C.3     1  LIG1        0.1042
     19 H           5.8749   10.3696    4.0727 H       1  LIG1        0.0718
     20 C           4.2532   10.8381    2.8027 C.3     1  LIG1        0.0137
     21 H           3.6981   10.2643    2.2007 H       1  LIG1        0.0347
     22 C           3.3247   11.4455    3.8528 C.3     1  LIG1        0.0126
     23 H           2.8327   10.7399    4.3429 H       1  LIG1        0.0348
     24 H           3.8327   11.9937    4.5014 H       1  LIG1        0.0348
     25 C           2.3916   12.2920    3.0502 C.ar    1  LIG1        0.1092
     26 O           1.1541   12.5956    3.5472 O.2     1  LIG1       -0.4675
     27 C           0.5195   13.3103    2.5668 C.ar    1  LIG1        0.0924
     28 H          -0.3640   13.6517    2.6372 H       1  LIG1        0.1029
     29 C           1.3144   13.4671    1.4868 C.ar    1  LIG1       -0.0196
     30 H           1.1021   13.9286    0.6833 H       1  LIG1        0.0652
     31 C           2.5491   12.7925    1.7998 C.ar    1  LIG1        0.0080
     32 C           3.8160   12.5860    0.9967 C.3     1  LIG1        0.0958
     33 H           4.1520   13.4716    0.6781 H       1  LIG1        0.0471
     34 C           4.8432   11.9709    1.9526 C.3     1  LIG1        0.0595
     35 H           5.1339   12.6936    2.5800 H       1  LIG1        0.0410
     36 C           6.0884   11.3829    1.3417 C.2     1  LIG1        0.2259
     37 N           6.4206   10.2692    2.1022 N.am    1  LIG1       -0.2509
     38 C           7.5200    9.4098    1.9133 C.ar    1  LIG1        0.0502
     39 C           4.1213    8.1599    4.2273 C.3     1  LIG1        0.0747
     40 H           3.7287    7.3117    3.9012 H       1  LIG1        0.0545
     41 H           3.4074    8.8458    4.2364 H       1  LIG1        0.0545
     42 C           4.6445    7.9688    5.6035 C.ar    1  LIG1        0.1221
     43 C           4.9293    6.8889    6.3655 C.ar    1  LIG1       -0.0191
     44 H           4.7643    5.9798    6.1461 H       1  LIG1        0.0652
     45 C           5.5291    7.3846    7.5677 C.ar    1  LIG1       -0.0236
     46 H           5.8351    6.8700    8.3052 H       1  LIG1        0.0649
     47 C           5.5738    8.7258    7.4482 C.ar    1  LIG1        0.0921
     48 H           5.9312    9.3163    8.1013 H       1  LIG1        0.1029
     49 C           3.5605   11.6840   -0.2049 C.2     1  LIG1        0.3131
@<TRIPOS>BOND
     1     5     4    1
     2     4    49    1
     3     3    49    2
     4    49    32    1
     5     6    36    2
     6    33    32    1
     7    30    29    1
     8    10     9    1
     9    32    31    1
    10    32    34    1
    11     8     7    1
    12     9     7   ar
    13     9    11   ar
    14     7    38   ar
    15    36    34    1
    16    36    37   am
    17    29    31   ar
    18    29    27   ar
    19    12    11    1
    20    11    13   ar
    21    31    25   ar
    22    38    37    1
    23    38    15   ar
    24    34    35    1
    25    34    20    1
    26    37    18    1
    27    13    15   ar
    28    13    14    1
    29    21    20    1
    30    15    16    1
    31    27    28    1
    32    27    26   ar
    33    20    18    1
    34    20    22    1
    35    16     1    2
    36    16    17   am
    37    25    26   ar
    38    25    22    1
    39    18    17    1
    40    18    19    1
    41    17    39    1
    42    22    23    1
    43    22    24    1
    44    40    39    1
    45    39    41    1
    46    39    42    1
    47    42     2   ar
    48    42    43   ar
    49    44    43    1
    50     2    47   ar
    51    43    45   ar
    52    47    45   ar
    53    47    48    1
    54    45    46    1
