@<TRIPOS>MOLECULE
[2-(2-Methoxy-1-naphthoyl)phenyl](1-naphthyl)methanone
 52 56 0 0 0
SMALL
GASTEIGER

@<TRIPOS>ATOM
      1 C           1.0391    5.6854    1.8995 C.ar    1  LIG1       -0.0503
      2 H           1.4330    6.5247    1.9706 H       1  LIG1        0.0625
      3 C          -0.3534    5.5942    1.7367 C.ar    1  LIG1       -0.0605
      4 H          -0.8712    6.3663    1.7158 H       1  LIG1        0.0618
      5 C          -0.9375    4.3876    1.6116 C.ar    1  LIG1       -0.0540
      6 H          -1.8558    4.3336    1.4751 H       1  LIG1        0.0624
      7 C          -0.1767    3.2091    1.6844 C.ar    1  LIG1       -0.0172
      8 C          -0.7899    1.9454    1.5640 C.ar    1  LIG1       -0.0540
      9 H          -1.7061    1.8968    1.4128 H       1  LIG1        0.0624
     10 C          -0.0770    0.8080    1.6626 C.ar    1  LIG1       -0.0612
     11 H          -0.4988   -0.0144    1.5657 H       1  LIG1        0.0618
     12 C           1.3005    0.8647    1.9092 C.ar    1  LIG1       -0.0611
     13 H           1.7842    0.0756    2.0017 H       1  LIG1        0.0618
     14 C           1.9398    2.0626    2.0131 C.ar    1  LIG1       -0.0533
     15 H           2.8554    2.0813    2.1745 H       1  LIG1        0.0624
     16 C           1.2315    3.2760    1.8800 C.ar    1  LIG1       -0.0071
     17 C           1.8314    4.5719    1.9545 C.ar    1  LIG1        0.0300
     18 C           3.3040    4.7650    2.0134 C.2     1  LIG1        0.1944
     19 C           3.8378    6.1438    2.3050 C.ar    1  LIG1        0.0331
     20 C           4.4285    6.8272    1.2563 C.ar    1  LIG1       -0.0502
     21 H           4.4694    6.4347    0.4134 H       1  LIG1        0.0625
     22 C           4.9585    8.0899    1.4511 C.ar    1  LIG1       -0.0610
     23 H           5.3493    8.5439    0.7390 H       1  LIG1        0.0618
     24 C           4.9095    8.6749    2.6898 C.ar    1  LIG1       -0.0610
     25 H           5.2660    9.5247    2.8172 H       1  LIG1        0.0618
     26 C           4.3323    8.0041    3.7439 C.ar    1  LIG1       -0.0502
     27 H           4.3036    8.4044    4.5839 H       1  LIG1        0.0625
     28 C           3.7912    6.7352    3.5689 C.ar    1  LIG1        0.0332
     29 C           3.2286    5.9912    4.7181 C.2     1  LIG1        0.1979
     30 C           3.0084    6.7102    6.0146 C.ar    1  LIG1        0.0715
     31 C           4.0068    6.6889    7.0174 C.ar    1  LIG1       -0.0035
     32 C           5.2458    6.0520    6.8382 C.ar    1  LIG1       -0.0532
     33 H           5.4086    5.5807    6.0534 H       1  LIG1        0.0624
     34 C           6.2142    6.1143    7.7997 C.ar    1  LIG1       -0.0611
     35 H           7.0317    5.6950    7.6616 H       1  LIG1        0.0618
     36 C           5.9821    6.8027    8.9875 C.ar    1  LIG1       -0.0612
     37 H           6.6505    6.8477    9.6322 H       1  LIG1        0.0618
     38 C           4.8031    7.4011    9.2097 C.ar    1  LIG1       -0.0540
     39 H           4.6630    7.8447   10.0144 H       1  LIG1        0.0624
     40 C           3.7635    7.3723    8.2408 C.ar    1  LIG1       -0.0170
     41 C           2.5242    8.0112    8.4085 C.ar    1  LIG1       -0.0505
     42 H           2.3460    8.4395    9.2160 H       1  LIG1        0.0625
     43 C           1.5833    8.0256    7.4418 C.ar    1  LIG1       -0.0186
     44 H           0.7736    8.4611    7.5851 H       1  LIG1        0.0654
     45 C           1.8305    7.3804    6.2142 C.ar    1  LIG1        0.1315
     46 C          -0.1823    8.2064    5.2065 C.3     1  LIG1        0.0788
     47 H          -0.7233    7.9824    5.9684 H       1  LIG1        0.0660
     48 H          -0.6946    8.0886    4.4027 H       1  LIG1        0.0660
     49 H           0.1012    9.1216    5.2748 H       1  LIG1        0.0660
     50 O           4.1031    3.8962    1.7175 O.2     1  LIG1       -0.2866
     51 O           2.9752    4.8089    4.6199 O.2     1  LIG1       -0.2865
     52 O           0.9544    7.3615    5.1697 O.3     1  LIG1       -0.4944
@<TRIPOS>BOND
     1    21    20    1
     2    23    22    1
     3    20    22   ar
     4    20    19   ar
     5     9     8    1
     6    22    24   ar
     7     6     5    1
     8     8    10   ar
     9     8     7   ar
    10    11    10    1
    11     5     7   ar
    12     5     3   ar
    13    10    12   ar
    14     7    16   ar
    15     4     3    1
    16    50    18    2
    17     3     1   ar
    18    16    17   ar
    19    16    14   ar
    20     1    17   ar
    21     1     2    1
    22    12    13    1
    23    12    14   ar
    24    17    18    1
    25    14    15    1
    26    18    19    1
    27    19    28   ar
    28    24    25    1
    29    24    26   ar
    30    28    26   ar
    31    28    29    1
    32    26    27    1
    33    48    46    1
    34    51    29    2
    35    29    30    1
    36    52    46    1
    37    52    45    1
    38    46    49    1
    39    46    47    1
    40    30    45   ar
    41    30    31   ar
    42    33    32    1
    43    45    43   ar
    44    32    31   ar
    45    32    34   ar
    46    31    40   ar
    47    43    44    1
    48    43    41   ar
    49    35    34    1
    50    34    36   ar
    51    40    41   ar
    52    40    38   ar
    53    41    42    1
    54    36    38   ar
    55    36    37    1
    56    38    39    1
