@<TRIPOS>MOLECULE
Ammonia--triphenylborane
 76 80 0 0 0
SMALL
GASTEIGER

@<TRIPOS>ATOM
      1 N           4.8640    2.6575   -0.4196 N.4     1  LIG1        1.0000
      2 C           5.3065    3.9734    1.8168 C.ar    1  LIG1        0.0000
      3 C           6.6580    3.9981    1.4799 C.ar    1  LIG1        0.0000
      4 C           7.5916    4.7004    2.2355 C.ar    1  LIG1        0.0000
      5 C           7.2097    5.3905    3.3519 C.ar    1  LIG1        0.0000
      6 C           5.8765    5.3851    3.7237 C.ar    1  LIG1        0.0000
      7 C           4.9540    4.6849    2.9677 C.ar    1  LIG1        0.0000
      8 C           2.9131    4.0715    0.6453 C.ar    1  LIG1        0.0000
      9 C           1.9502    4.3298    1.6321 C.ar    1  LIG1        0.0000
     10 C           0.9178    5.2255    1.4457 C.ar    1  LIG1        0.0000
     11 C           0.7788    5.8899    0.2422 C.ar    1  LIG1        0.0000
     12 C           1.6818    5.6393   -0.7650 C.ar    1  LIG1        0.0000
     13 C           2.7371    4.7499   -0.5599 C.ar    1  LIG1        0.0000
     14 C           3.8083    1.7567    1.7476 C.ar    1  LIG1        0.0000
     15 C           4.6433    1.1564    2.6909 C.ar    1  LIG1        0.0000
     16 C           4.3678   -0.0882    3.2482 C.ar    1  LIG1        0.0000
     17 C           3.2245   -0.7651    2.8738 C.ar    1  LIG1        0.0000
     18 C           2.3594   -0.1977    1.9782 C.ar    1  LIG1        0.0000
     19 C           2.6547    1.0421    1.4246 C.ar    1  LIG1        0.0000
     20 B           4.1895    3.1369    0.9946 B       1  LIG1        0.0000
     21 N          -0.3096    5.5369    8.0908 N.4     2  LIG2        1.0000
     22 C           1.0344    4.8121    6.0164 C.ar    2  LIG2        0.0000
     23 C           2.3393    4.3201    6.1423 C.ar    2  LIG2        0.0000
     24 C           2.7353    3.1272    5.5525 C.ar    2  LIG2        0.0000
     25 C           1.8484    2.3833    4.8156 C.ar    2  LIG2        0.0000
     26 C           0.5581    2.8483    4.6466 C.ar    2  LIG2        0.0000
     27 C           0.1675    4.0463    5.2350 C.ar    2  LIG2        0.0000
     28 C          -0.5323    6.9995    5.9338 C.ar    2  LIG2        0.0000
     29 C          -0.1843    7.4334    4.6493 C.ar    2  LIG2        0.0000
     30 C          -1.0002    8.2621    3.8912 C.ar    2  LIG2        0.0000
     31 C          -2.2214    8.6729    4.3926 C.ar    2  LIG2        0.0000
     32 C          -2.6185    8.2335    5.6247 C.ar    2  LIG2        0.0000
     33 C          -1.7932    7.4121    6.3851 C.ar    2  LIG2        0.0000
     34 C           1.7365    7.0202    7.3964 C.ar    2  LIG2        0.0000
     35 C           2.1209    7.0370    8.7344 C.ar    2  LIG2        0.0000
     36 C           3.1857    7.8002    9.2019 C.ar    2  LIG2        0.0000
     37 C           3.9112    8.5759    8.3297 C.ar    2  LIG2        0.0000
     38 C           3.5803    8.5759    6.9970 C.ar    2  LIG2        0.0000
     39 C           2.5187    7.8152    6.5446 C.ar    2  LIG2        0.0000
     40 B           0.5153    6.1272    6.8068 B       2  LIG2        0.0000
     41 H           6.9506    3.5208    0.7122 H       1  LIG1        0.0000
     42 H           8.5044    4.7001    1.9725 H       1  LIG1        0.0000
     43 H           7.8509    5.8677    3.8656 H       1  LIG1        0.0000
     44 H           5.5959    5.8611    4.4965 H       1  LIG1        0.0000
     45 H           4.0442    4.6875    3.2413 H       1  LIG1        0.0000
     46 H           2.0113    3.8694    2.4611 H       1  LIG1        0.0000
     47 H           0.2992    5.3863    2.1486 H       1  LIG1        0.0000
     48 H           0.0707    6.5093    0.1123 H       1  LIG1        0.0000
     49 H           1.5865    6.0743   -1.6042 H       1  LIG1        0.0000
     50 H           3.3563    4.6011   -1.2650 H       1  LIG1        0.0000
     51 H           5.4297    1.6148    2.9627 H       1  LIG1        0.0000
     52 H           4.9628   -0.4700    3.8827 H       1  LIG1        0.0000
     53 H           3.0387   -1.6230    3.2368 H       1  LIG1        0.0000
     54 H           1.5595   -0.6490    1.7358 H       1  LIG1        0.0000
     55 H           2.0459    1.4181    0.7998 H       1  LIG1        0.0000
     56 H           4.2431    2.2165   -0.9179 H       1  LIG1        0.0000
     57 H           5.5652    2.1032   -0.2488 H       1  LIG1        0.0000
     58 H           5.1582    3.3866   -0.8778 H       1  LIG1        0.0000
     59 H           2.9728    4.8179    6.6461 H       2  LIG2        0.0000
     60 H           3.6287    2.8222    5.6605 H       2  LIG2        0.0000
     61 H           2.1178    1.5595    4.4265 H       2  LIG2        0.0000
     62 H          -0.0623    2.3495    4.1282 H       2  LIG2        0.0000
     63 H          -0.7210    4.3545    5.1004 H       2  LIG2        0.0000
     64 H           0.6441    7.1492    4.2812 H       2  LIG2        0.0000
     65 H          -0.7198    8.5466    3.0293 H       2  LIG2        0.0000
     66 H          -2.7781    9.2529    3.8867 H       2  LIG2        0.0000
     67 H          -3.4669    8.4921    5.9650 H       2  LIG2        0.0000
     68 H          -2.0939    7.1213    7.2381 H       2  LIG2        0.0000
     69 H           1.6357    6.5049    9.3539 H       2  LIG2        0.0000
     70 H           3.4114    7.7852   10.1245 H       2  LIG2        0.0000
     71 H           4.6338    9.1053    8.6453 H       2  LIG2        0.0000
     72 H           4.0822    9.1009    6.3843 H       2  LIG2        0.0000
     73 H           2.3097    7.8312    5.6181 H       2  LIG2        0.0000
     74 H          -0.6035    6.2272    8.6058 H       2  LIG2        0.0000
     75 H           0.2380    5.0026    8.5836 H       2  LIG2        0.0000
     76 H          -1.0220    5.0528    7.7973 H       2  LIG2        0.0000
@<TRIPOS>BOND
     1    49    12    1
     2    50    13    1
     3    56     1    1
     4    58     1    1
     5    12    13   ar
     6    12    11   ar
     7    13     8   ar
     8     1    57    1
     9     1    20    1
    10    48    11    1
    11    11    10   ar
    12     8    20    1
    13     8     9   ar
    14    41     3    1
    15    55    19    1
    16    20    14    1
    17    20     2    1
    18    19    14   ar
    19    19    18   ar
    20    10     9   ar
    21    10    47    1
    22     3     2   ar
    23     3     4   ar
    24     9    46    1
    25    54    18    1
    26    14    15   ar
    27     2     7   ar
    28    42     4    1
    29    18    17   ar
    30     4     5   ar
    31    15    51    1
    32    15    16   ar
    33    17    53    1
    34    17    16   ar
    35     7    45    1
    36     7     6   ar
    37    65    30    1
    38    16    52    1
    39     5     6   ar
    40     5    43    1
    41     6    44    1
    42    66    31    1
    43    30    31   ar
    44    30    29   ar
    45    62    26    1
    46    64    29    1
    47    31    32   ar
    48    61    25    1
    49    26    25   ar
    50    26    27   ar
    51    29    28   ar
    52    25    24   ar
    53    63    27    1
    54    27    22   ar
    55    24    60    1
    56    24    23   ar
    57    73    39    1
    58    32    67    1
    59    32    33   ar
    60    28    33   ar
    61    28    40    1
    62    22    23   ar
    63    22    40    1
    64    23    59    1
    65    72    38    1
    66    33    68    1
    67    39    38   ar
    68    39    34   ar
    69    40    34    1
    70    40    21    1
    71    38    37   ar
    72    34    35   ar
    73    76    21    1
    74    21    75    1
    75    21    74    1
    76    37    71    1
    77    37    36   ar
    78    35    36   ar
    79    35    69    1
    80    36    70    1
