@<TRIPOS>MOLECULE
<i>N</i>,<i>N</i>'-Diallyl-2,2',5,5'-tetrachloro-<i>N</i>,<i>N</i>'- [1,3-phenylenebis(methylene)]dibenzenesulfonamide
 62 64 0 0 0
SMALL
GASTEIGER

@<TRIPOS>ATOM
      1 C           3.4226    4.2392    0.8601 C.ar    1  LIG1       -0.0528
      2 H           4.3495    4.3139    0.8609 H       1  LIG1        0.0624
      3 C           2.7320    4.2339    2.0701 C.ar    1  LIG1       -0.0314
      4 C           1.3579    4.1437    2.0553 C.ar    1  LIG1       -0.0573
      5 H           0.8842    4.1548    2.8551 H       1  LIG1        0.0621
      6 C           0.6823    4.0374    0.8583 C.ar    1  LIG1       -0.0612
      7 H          -0.2461    3.9741    0.8547 H       1  LIG1        0.0618
      8 C           1.3683    4.0218   -0.3257 C.ar    1  LIG1       -0.0573
      9 H           0.9035    3.9362   -1.1271 H       1  LIG1        0.0621
     10 C           2.7474    4.1338   -0.3430 C.ar    1  LIG1       -0.0314
     11 C           3.4968    4.2335    3.3627 C.3     1  LIG1        0.0459
     12 H           4.0671    5.0172    3.4062 H       1  LIG1        0.0493
     13 H           2.8788    4.2650    4.1099 H       1  LIG1        0.0493
     14 C           3.6124    1.7265    3.4537 C.3     1  LIG1        0.0387
     15 H           4.2592    1.0041    3.4140 H       1  LIG1        0.0487
     16 H           3.0504    1.6670    2.6652 H       1  LIG1        0.0487
     17 C           2.7767    1.5654    4.6595 C.2     1  LIG1       -0.0755
     18 H           3.2011    1.6313    5.4830 H       1  LIG1        0.0580
     19 C           1.5414    1.3478    4.6641 C.2     1  LIG1       -0.1014
     20 H           1.0785    1.2756    3.8608 H       1  LIG1        0.0532
     21 H           1.0883    1.2598    5.4721 H       1  LIG1        0.0532
     22 C           6.0235    2.4440    5.4852 C.ar    1  LIG1        0.1251
     23 C           5.6216    3.1849    6.5919 C.ar    1  LIG1        0.0673
     24 C           5.8185    2.6873    7.8582 C.ar    1  LIG1       -0.0401
     25 H           5.5677    3.1974    8.5934 H       1  LIG1        0.0633
     26 C           6.3796    1.4508    8.0542 C.ar    1  LIG1       -0.0419
     27 H           6.5158    1.1263    8.9141 H       1  LIG1        0.0633
     28 C           6.7365    0.6987    6.9566 C.ar    1  LIG1        0.0429
     29 C           6.5619    1.1813    5.6796 C.ar    1  LIG1       -0.0156
     30 H           6.8046    0.6611    4.9475 H       1  LIG1        0.0652
     31 C           3.5235    4.0852   -1.6332 C.3     1  LIG1        0.0459
     32 H           3.2080    4.7827   -2.2293 H       1  LIG1        0.0493
     33 H           4.4632    4.2436   -1.4540 H       1  LIG1        0.0493
     34 C           3.7676    1.5775   -1.5200 C.3     1  LIG1        0.0387
     35 H           3.3974    0.7890   -1.9460 H       1  LIG1        0.0487
     36 H           3.3959    1.6334   -0.6258 H       1  LIG1        0.0487
     37 C           5.2411    1.4239   -1.4203 C.2     1  LIG1       -0.0755
     38 H           5.7115    1.2901   -2.2106 H       1  LIG1        0.0580
     39 C           5.9144    1.4615   -0.3316 C.2     1  LIG1       -0.1014
     40 H           5.4805    1.5937    0.4795 H       1  LIG1        0.0532
     41 H           6.8386    1.3571   -0.3518 H       1  LIG1        0.0532
     42 C           1.7612    3.3350   -4.3470 C.ar    1  LIG1        0.1251
     43 C           0.5751    2.6883   -4.0047 C.ar    1  LIG1        0.0673
     44 C          -0.6225    3.1765   -4.4399 C.ar    1  LIG1       -0.0401
     45 H          -1.4086    2.7305   -4.2189 H       1  LIG1        0.0633
     46 C          -0.6799    4.3173   -5.2028 C.ar    1  LIG1       -0.0419
     47 H          -1.4987    4.6414   -5.5001 H       1  LIG1        0.0633
     48 C           0.4815    4.9726   -5.5193 C.ar    1  LIG1        0.0429
     49 C           1.7107    4.4868   -5.1098 C.ar    1  LIG1       -0.0156
     50 H           2.4936    4.9303   -5.3444 H       1  LIG1        0.0652
     51 S           5.8833    3.0075    3.7981 S.O2    1  LIG1        0.0628
     52 S           3.3643    2.7301   -3.8930 S.O2    1  LIG1        0.0628
     53 N           4.3211    3.0112    3.4480 N.3     1  LIG1       -0.1685
     54 N           3.3587    2.7681   -2.2824 N.3     1  LIG1       -0.1685
     55 O           6.5147    1.9939    3.0248 O.2     1  LIG1       -0.1528
     56 O           6.3582    4.3451    3.7005 O.2     1  LIG1       -0.1528
     57 O           3.4751    1.3694   -4.3012 O.2     1  LIG1       -0.1528
     58 CL          4.8414    4.7145    6.4359 Cl      1  LIG1       -0.0815
     59 CL          7.4298   -0.8756    7.1562 Cl      1  LIG1       -0.0835
     60 CL          0.5760    1.2700   -3.0197 Cl      1  LIG1       -0.0815
     61 CL          0.4330    6.4462   -6.4208 Cl      1  LIG1       -0.0835
     62 O           4.3004    3.6721   -4.4182 O.2     1  LIG1       -0.1528
@<TRIPOS>BOND
     1    61    48    1
     2    48    46   ar
     3    48    49   ar
     4    47    46    1
     5    50    49    1
     6    46    44   ar
     7    49    42   ar
     8    44    45    1
     9    44    43   ar
    10    62    52    2
    11    42    43   ar
    12    42    52    1
    13    57    52    2
    14    43    60    1
    15    52    54    1
    16    54    31    1
    17    54    34    1
    18    32    31    1
    19    38    37    1
    20    35    34    1
    21    31    33    1
    22    31    10    1
    23    34    37    1
    24    34    36    1
    25    37    39    2
    26     9     8    1
    27    41    39    1
    28    10     8   ar
    29    10     1   ar
    30    39    40    1
    31     8     6   ar
    32     7     6    1
    33     6     4   ar
    34     1     2    1
    35     1     3   ar
    36     4     3   ar
    37     4     5    1
    38     3    11    1
    39    16    14    1
    40    55    51    2
    41    11    12    1
    42    11    53    1
    43    11    13    1
    44    15    14    1
    45    53    14    1
    46    53    51    1
    47    14    17    1
    48    56    51    2
    49    51    22    1
    50    20    19    1
    51    17    19    2
    52    17    18    1
    53    19    21    1
    54    30    29    1
    55    22    29   ar
    56    22    23   ar
    57    29    28   ar
    58    58    23    1
    59    23    24   ar
    60    28    59    1
    61    28    26   ar
    62    24    26   ar
    63    24    25    1
    64    26    27    1
