@<TRIPOS>MOLECULE
2-(4-Bromophenyl)-2-oxoethyl 4-hydroxybenzoate
 31 32 0 0 0
SMALL
GASTEIGER

@<TRIPOS>ATOM
      1 BR         -2.2738    5.8687   -1.4588 Br      1  LIG1       -0.0503
      2 O           1.8945    4.2715    5.6125 O.3     1  LIG1       -0.4531
      3 O           2.5422    5.6875    3.4194 O.2     1  LIG1       -0.2884
      4 O           3.2998    2.8901    4.5186 O.2     1  LIG1       -0.2449
      5 O           6.2166    3.8087   10.1493 O.3     1  LIG1       -0.5068
      6 H           6.8013    3.2279   10.0654 H       1  LIG1        0.2921
      7 C           1.0068    5.9619    1.0685 C.ar    1  LIG1       -0.0501
      8 H           1.8762    6.3452    1.0695 H       1  LIG1        0.0625
      9 C           0.1860    6.1325   -0.0331 C.ar    1  LIG1       -0.0471
     10 H           0.4899    6.6123   -0.7942 H       1  LIG1        0.0629
     11 C          -1.0959    5.5857   -0.0011 C.ar    1  LIG1        0.0179
     12 C          -1.5478    4.8465    1.0788 C.ar    1  LIG1       -0.0471
     13 H          -2.4206    4.4711    1.0748 H       1  LIG1        0.0629
     14 C          -0.7076    4.6611    2.1680 C.ar    1  LIG1       -0.0501
     15 H          -1.0018    4.1455    2.9095 H       1  LIG1        0.0625
     16 C           0.5698    5.2305    2.1796 C.ar    1  LIG1        0.0209
     17 C           1.4717    5.1051    3.3516 C.2     1  LIG1        0.2003
     18 C           1.0105    4.2202    4.4908 C.3     1  LIG1        0.1550
     19 H           0.1067    4.5053    4.7759 H       1  LIG1        0.0782
     20 H           0.9469    3.2855    4.1696 H       1  LIG1        0.0782
     21 C           3.0210    3.5270    5.5103 C.2     1  LIG1        0.3396
     22 C           3.8348    3.5909    6.7434 C.ar    1  LIG1        0.0592
     23 C           3.4115    4.2794    7.8903 C.ar    1  LIG1       -0.0443
     24 H           2.5658    4.7133    7.8998 H       1  LIG1        0.0627
     25 C           4.2245    4.3277    9.0072 C.ar    1  LIG1       -0.0194
     26 H           3.9343    4.7935    9.7821 H       1  LIG1        0.0654
     27 C           5.4664    3.6960    9.0035 C.ar    1  LIG1        0.1169
     28 C           5.8877    2.9942    7.8741 C.ar    1  LIG1       -0.0194
     29 H           6.7311    2.5572    7.8681 H       1  LIG1        0.0654
     30 C           5.0659    2.9405    6.7577 C.ar    1  LIG1       -0.0443
     31 H           5.3470    2.4521    5.9937 H       1  LIG1        0.0627
@<TRIPOS>BOND
     1     1    11    1
     2    10     9    1
     3     9    11   ar
     4     9     7   ar
     5    11    12   ar
     6     7     8    1
     7     7    16   ar
     8    13    12    1
     9    12    14   ar
    10    14    16   ar
    11    14    15    1
    12    16    17    1
    13    17     3    2
    14    17    18    1
    15    20    18    1
    16    18    19    1
    17    18     2    1
    18     4    21    2
    19    21     2    1
    20    21    22    1
    21    31    30    1
    22    22    30   ar
    23    22    23   ar
    24    30    28   ar
    25    29    28    1
    26    28    27   ar
    27    23    24    1
    28    23    25   ar
    29    27    25   ar
    30    27     5    1
    31    25    26    1
    32     6     5    1
