@<TRIPOS>MOLECULE
Dibenzo[<i>a</i>,<i>e</i>]pentacyclo[12.2.1.1^6,9^.0^2,13^.0^5.10^]octadeca- 2(13),5(10)-diene
 50 56 0 0 0
SMALL
GASTEIGER

@<TRIPOS>ATOM
      1 C           2.3897    3.6190   -1.3783 C.ar    1  LIG1       -0.0139
      2 C           1.6397    4.1428   -2.4489 C.ar    1  LIG1       -0.0537
      3 H           1.5294    3.6201   -3.2343 H       1  LIG1        0.0624
      4 C           1.0564    5.4020   -2.3891 C.ar    1  LIG1       -0.0612
      5 H           0.5333    5.7217   -3.1149 H       1  LIG1        0.0618
      6 C           1.2448    6.1908   -1.2584 C.ar    1  LIG1       -0.0612
      7 H           0.8570    7.0571   -1.2085 H       1  LIG1        0.0618
      8 C           2.0036    5.7023   -0.2035 C.ar    1  LIG1       -0.0537
      9 H           2.1443    6.2526    0.5573 H       1  LIG1        0.0624
     10 C           2.5698    4.4162   -0.2296 C.ar    1  LIG1       -0.0139
     11 C           3.4096    4.0089    0.9142 C.2     1  LIG1       -0.0325
     12 C           3.3765    2.8900    1.6747 C.2     1  LIG1       -0.0325
     13 C           2.5139    1.6943    1.6032 C.ar    1  LIG1       -0.0139
     14 C           1.8520    1.2871    2.7776 C.ar    1  LIG1       -0.0537
     15 H           1.9532    1.8009    3.5700 H       1  LIG1        0.0624
     16 C           1.0527    0.1489    2.8019 C.ar    1  LIG1       -0.0612
     17 H           0.5837   -0.0859    3.5937 H       1  LIG1        0.0618
     18 C           0.9418   -0.6425    1.6667 C.ar    1  LIG1       -0.0612
     19 H           0.4027   -1.4241    1.6783 H       1  LIG1        0.0618
     20 C           1.6265   -0.2803    0.5146 C.ar    1  LIG1       -0.0537
     21 H           1.5762   -0.8429   -0.2490 H       1  LIG1        0.0624
     22 C           2.3936    0.8976    0.4463 C.ar    1  LIG1       -0.0139
     23 C           3.0952    1.2045   -0.8177 C.2     1  LIG1       -0.0325
     24 C           3.0732    2.3253   -1.5720 C.2     1  LIG1       -0.0325
     25 C           3.7596    1.9860   -2.8951 C.3     1  LIG1       -0.0144
     26 H           4.1081    2.7667   -3.4140 H       1  LIG1        0.0349
     27 C           4.8238    0.9830   -2.4022 C.3     1  LIG1       -0.0393
     28 H           5.2666    0.4941   -3.1404 H       1  LIG1        0.0277
     29 H           5.4991    1.3964   -1.8078 H       1  LIG1        0.0277
     30 C           3.7962    0.1212   -1.6400 C.3     1  LIG1       -0.0144
     31 H           4.1729   -0.6441   -1.1182 H       1  LIG1        0.0349
     32 C           2.8343   -0.2647   -2.8105 C.3     1  LIG1       -0.0456
     33 H           3.1872   -1.0337   -3.3246 H       1  LIG1        0.0271
     34 H           1.9303   -0.4875   -2.4727 H       1  LIG1        0.0271
     35 C           2.8077    1.0245   -3.6768 C.3     1  LIG1       -0.0456
     36 H           1.8928    1.3975   -3.7360 H       1  LIG1        0.0271
     37 H           3.1462    0.8489   -4.5907 H       1  LIG1        0.0271
     38 C           4.2870    3.1389    2.8751 C.3     1  LIG1       -0.0144
     39 H           4.6188    2.3185    3.3411 H       1  LIG1        0.0349
     40 C           5.3703    4.0145    2.2235 C.3     1  LIG1       -0.0393
     41 H           5.8980    3.5317    1.5387 H       1  LIG1        0.0277
     42 H           5.9707    4.4424    2.8841 H       1  LIG1        0.0277
     43 C           4.3480    4.9955    1.6151 C.3     1  LIG1       -0.0144
     44 H           4.7290    5.7180    1.0380 H       1  LIG1        0.0349
     45 C           3.6084    5.4759    2.9079 C.3     1  LIG1       -0.0456
     46 H           4.1038    6.2082    3.3529 H       1  LIG1        0.0271
     47 H           2.6900    5.7839    2.7017 H       1  LIG1        0.0271
     48 C           3.5877    4.1948    3.7889 C.3     1  LIG1       -0.0456
     49 H           2.6607    3.9235    4.0051 H       1  LIG1        0.0271
     50 H           4.0918    4.3299    4.6308 H       1  LIG1        0.0271
@<TRIPOS>BOND
     1    37    35    1
     2    36    35    1
     3    35    25    1
     4    35    32    1
     5    26    25    1
     6    33    32    1
     7     3     2    1
     8    28    27    1
     9     5     4    1
    10    25    27    1
    11    25    24    1
    12    32    34    1
    13    32    30    1
    14     2     4   ar
    15     2     1   ar
    16    27    29    1
    17    27    30    1
    18     4     6   ar
    19    30    31    1
    20    30    23    1
    21    24     1    1
    22    24    23    2
    23     1    10   ar
    24     6     7    1
    25     6     8   ar
    26    23    22    1
    27    21    20    1
    28    10     8   ar
    29    10    11    1
    30     8     9    1
    31    22    20   ar
    32    22    13   ar
    33    20    18   ar
    34    11    43    1
    35    11    12    2
    36    44    43    1
    37    41    40    1
    38    13    12    1
    39    13    14   ar
    40    43    40    1
    41    43    45    1
    42    18    19    1
    43    18    16   ar
    44    12    38    1
    45    40    38    1
    46    40    42    1
    47    47    45    1
    48    14    16   ar
    49    14    15    1
    50    16    17    1
    51    38    39    1
    52    38    48    1
    53    45    46    1
    54    45    48    1
    55    48    49    1
    56    48    50    1
