@<TRIPOS>MOLECULE
<i>N</i>,<i>N</i>'-(1,4-Phenylene)bis(4-chlorobutanamide)
 19 18 0 0 0
SMALL
GASTEIGER

@<TRIPOS>ATOM
      1 CL          0.9383   -3.3411   10.7365 Cl      1  LIG1       -0.1254
      2 O           1.7775   -0.0736    7.0132 O.2     1  LIG1       -0.2194
      3 C          -0.3475    1.5376    5.9594 C.2     1  LIG1        0.1641
      4 C          -1.3392    2.5076    6.1223 C.3     1  LIG1        0.0649
      5 H          -2.0382    2.3568    6.7476 H       1  LIG1        0.0420
      6 N          -0.4324    0.3606    6.7338 N.am    1  LIG1       -0.1555
      7 H          -1.2394    0.0492    6.8948 H       1  LIG1        0.4464
      8 C           1.1281   -2.6613    8.0936 C.3     1  LIG1       -0.0266
      9 H           1.1213   -2.9874    7.1588 H       1  LIG1        0.0283
     10 H           2.0548   -2.3908    8.3130 H       1  LIG1        0.0283
     11 C           0.7171   -3.7873    9.0079 C.3     1  LIG1        0.0232
     12 H           1.2593   -4.5901    8.8045 H       1  LIG1        0.0430
     13 H          -0.2333   -4.0113    8.8462 H       1  LIG1        0.0430
     14 C           0.6091   -0.3390    7.2554 C.2     1  LIG1        0.3813
     15 C           0.2176   -1.4438    8.2008 C.3     1  LIG1        0.0740
     16 H          -0.7137   -1.7187    8.0082 H       1  LIG1        0.0408
     17 H           0.2460   -1.0996    9.1290 H       1  LIG1        0.0408
     18 C           0.6735    1.7697    5.0406 C.3     1  LIG1        0.0649
     19 H           1.3584    1.1233    4.9151 H       1  LIG1        0.0420
@<TRIPOS>BOND
     1    19    18    1
     2    18     3    1
     3     3     4    1
     4     3     6    2
     5     4     5    1
     6     6     7    1
     7     6    14   am
     8     2    14    2
     9     9     8    1
    10    14    15    1
    11    16    15    1
    12     8    15    1
    13     8    10    1
    14     8    11    1
    15    15    17    1
    16    12    11    1
    17    13    11    1
    18    11     1    1
