@<TRIPOS>MOLECULE
2,2'-[1,3-Diazinane-1,3-diylbis(methylene)]bis(4-bromophenol)
 44 46 0 0 0
SMALL
GASTEIGER

@<TRIPOS>ATOM
      1 BR          3.0579    5.7213   20.8460 Br      1  LIG1       -0.0503
      2 BR          2.9489    0.6465    8.5990 Br      1  LIG1       -0.0503
      3 O           5.7188    6.5584   15.5066 O.3     1  LIG1       -0.5065
      4 O           5.7534    4.9449   11.7615 O.3     1  LIG1       -0.5065
      5 N           3.3949    6.1750   14.3284 N.3     1  LIG1       -0.2852
      6 N           3.4462    6.2425   11.9481 N.3     1  LIG1       -0.2852
      7 C           2.9110    5.5371   13.1155 C.3     1  LIG1        0.0525
      8 C           2.8698    7.5571   14.4221 C.3     1  LIG1        0.0016
      9 C           3.3323    8.3379   13.2117 C.3     1  LIG1       -0.0273
     10 C           2.9503    7.6257   11.9219 C.3     1  LIG1        0.0016
     11 C           3.0457    5.3610   15.5071 C.3     1  LIG1        0.0287
     12 C           3.7829    5.8016   16.7469 C.ar    1  LIG1        0.0091
     13 C           5.0817    6.3565   16.6856 C.ar    1  LIG1        0.1213
     14 C           5.7450    6.7125   17.8544 C.ar    1  LIG1       -0.0188
     15 C           5.1556    6.5142   19.0891 C.ar    1  LIG1       -0.0443
     16 C           3.8711    5.9748   19.1471 C.ar    1  LIG1        0.0184
     17 C           3.1965    5.6170   18.0001 C.ar    1  LIG1       -0.0399
     18 C           3.1011    5.5542   10.6961 C.3     1  LIG1        0.0287
     19 C           3.7829    4.2118   10.5562 C.ar    1  LIG1        0.0091
     20 C           5.0662    3.9756   11.0890 C.ar    1  LIG1        0.1213
     21 C           5.6640    2.7314   10.9387 C.ar    1  LIG1       -0.0188
     22 C           5.0423    1.7230   10.2160 C.ar    1  LIG1       -0.0443
     23 C           3.7984    1.9821    9.6581 C.ar    1  LIG1        0.0184
     24 C           3.1649    3.1993    9.8333 C.ar    1  LIG1       -0.0399
     25 H           1.9518    5.5701   13.0972 H       1  LIG1        0.0595
     26 H           3.2014    4.6222   13.0974 H       1  LIG1        0.0595
     27 H           3.2061    7.9736   15.2191 H       1  LIG1        0.0427
     28 H           1.9105    7.5344   14.4410 H       1  LIG1        0.0427
     29 H           2.9357    9.2120   13.2243 H       1  LIG1        0.0290
     30 H           4.2854    8.4474   13.2465 H       1  LIG1        0.0290
     31 H           1.9945    7.6211   11.8300 H       1  LIG1        0.0427
     32 H           3.3344    8.0893   11.1744 H       1  LIG1        0.0427
     33 H           3.2428    4.4385   15.3285 H       1  LIG1        0.0477
     34 H           2.0998    5.4117   15.6623 H       1  LIG1        0.0477
     35 H           6.6218    7.1003   17.8035 H       1  LIG1        0.0654
     36 H           5.6241    6.7445   19.8949 H       1  LIG1        0.0630
     37 H           2.3165    5.2381   18.0634 H       1  LIG1        0.0633
     38 H           3.3350    6.1111    9.9499 H       1  LIG1        0.0477
     39 H           2.1497    5.4365   10.6473 H       1  LIG1        0.0477
     40 H           6.5198    2.5663   11.3408 H       1  LIG1        0.0654
     41 H           5.4627    0.8671   10.1046 H       1  LIG1        0.0630
     42 H           2.2948    3.3447    9.4543 H       1  LIG1        0.0633
     43 H           5.1735    6.3701   14.8831 H       1  LIG1        0.2921
     44 H           5.2688    5.6229   11.9093 H       1  LIG1        0.2921
@<TRIPOS>BOND
     1     2    23    1
     2    42    24    1
     3    23    24   ar
     4    23    22   ar
     5    24    19   ar
     6    38    18    1
     7    41    22    1
     8    22    21   ar
     9    19    18    1
    10    19    20   ar
    11    39    18    1
    12    18     6    1
    13    21    20   ar
    14    21    40    1
    15    20     4    1
    16    32    10    1
    17     4    44    1
    18    31    10    1
    19    10     6    1
    20    10     9    1
    21     6     7    1
    22    25     7    1
    23    26     7    1
    24     7     5    1
    25     9    29    1
    26     9    30    1
    27     9     8    1
    28     5     8    1
    29     5    11    1
    30     8    28    1
    31     8    27    1
    32    43     3    1
    33    33    11    1
    34     3    13    1
    35    11    34    1
    36    11    12    1
    37    13    12   ar
    38    13    14   ar
    39    12    17   ar
    40    35    14    1
    41    14    15   ar
    42    17    37    1
    43    17    16   ar
    44    15    16   ar
    45    15    36    1
    46    16     1    1
