@<TRIPOS>MOLECULE
(7a<i>S</i>)-(--)-Dimethyl(1-oxido-3-oxo-5,6,7,7a-tetrahydro-3<i>H</i>- pyrrolizin-2-yl)sulfonium
 26 27 0 0 0
SMALL
GASTEIGER

@<TRIPOS>ATOM
      1 S           4.2477    5.3683    0.1936 S.3     1  LIG1       -0.1907
      2 O           4.0998    2.4146    1.6264 O.2     1  LIG1       -0.2934
      3 O           2.3786    6.7656    2.3079 O.2     1  LIG1       -0.2735
      4 N           2.4668    4.8722    3.6248 N.am    1  LIG1       -0.2900
      5 C           2.7741    5.6077    2.4972 C.2     1  LIG1        0.2411
      6 C           3.5586    4.7555    1.6391 C.3     1  LIG1        0.1726
      7 C           3.5797    3.4288    2.1113 C.2     1  LIG1        0.1798
      8 C           2.8241    3.4528    3.4343 C.3     1  LIG1        0.0863
      9 H           3.4217    3.1473    4.1762 H       1  LIG1        0.0580
     10 C           1.4802    2.7420    3.5218 C.3     1  LIG1       -0.0259
     11 H           1.5877    1.7944    3.7865 H       1  LIG1        0.0288
     12 H           0.9884    2.7884    2.6637 H       1  LIG1        0.0288
     13 C           0.7809    3.5507    4.6104 C.3     1  LIG1       -0.0350
     14 H           1.0994    3.2836    5.5098 H       1  LIG1        0.0281
     15 H          -0.2004    3.4272    4.5676 H       1  LIG1        0.0281
     16 C           1.1658    5.0075    4.3014 C.3     1  LIG1        0.0155
     17 H           0.4977    5.4351    3.7086 H       1  LIG1        0.0465
     18 H           1.2487    5.5387    5.1326 H       1  LIG1        0.0465
     19 C           5.9484    4.8255    0.2116 C.3     1  LIG1       -0.0257
     20 H           6.3650    5.0290   -0.6518 H       1  LIG1        0.0333
     21 H           5.9813    3.8596    0.3702 H       1  LIG1        0.0333
     22 H           6.4320    5.2907    0.9263 H       1  LIG1        0.0333
     23 C           3.6355    4.3103   -1.1142 C.3     1  LIG1       -0.0257
     24 H           4.0715    4.5493   -1.9588 H       1  LIG1        0.0333
     25 H           2.6666    4.4275   -1.2026 H       1  LIG1        0.0333
     26 H           3.8330    3.3754   -0.8979 H       1  LIG1        0.0333
@<TRIPOS>BOND
     1    24    23    1
     2    25    23    1
     3    23    26    1
     4    23     1    1
     5    20    19    1
     6     1    19    1
     7     1     6    1
     8    19    21    1
     9    19    22    1
    10     2     7    2
    11     6     7    1
    12     6     5    1
    13     7     8    1
    14     3     5    2
    15     5     4   am
    16    12    10    1
    17     8    10    1
    18     8     4    1
    19     8     9    1
    20    10    11    1
    21    10    13    1
    22     4    16    1
    23    17    16    1
    24    16    13    1
    25    16    18    1
    26    15    13    1
    27    13    14    1
