@<TRIPOS>MOLECULE
(<i>Z</i>)-2-(5-Methyl-2-oxoindolin-3-ylidene)-<i>N</i>- phenylhydrazinecarbothioamide
 36 38 0 0 0
SMALL
GASTEIGER

@<TRIPOS>ATOM
      1 S           0.4347    5.2523    0.1839 S.2     1  LIG1       -0.0169
      2 O           4.0327    8.0686    0.1617 O.2     1  LIG1       -0.2681
      3 N           5.1804    9.4423    1.6421 N.am    1  LIG1       -0.2796
      4 N           2.2036    7.7458    2.5542 N.2     1  LIG1       -0.1753
      5 N           1.8107    7.0675    1.4559 N.am    1  LIG1       -0.2175
      6 N           0.1070    6.2252    2.7108 N.am    1  LIG1       -0.2956
      7 C           3.9056    9.2124    3.5394 C.ar    1  LIG1        0.0284
      8 C           3.5760    9.4062    4.8786 C.ar    1  LIG1       -0.0476
      9 H           2.7865    9.0187    5.2398 H       1  LIG1        0.0627
     10 C           4.4181   10.1755    5.6862 C.ar    1  LIG1       -0.0497
     11 C           5.5688   10.7397    5.1205 C.ar    1  LIG1       -0.0570
     12 H           6.1406   11.2595    5.6723 H       1  LIG1        0.0621
     13 C           5.9093   10.5670    3.7736 C.ar    1  LIG1       -0.0396
     14 H           6.6905   10.9616    3.4049 H       1  LIG1        0.0636
     15 C           5.0596    9.7973    3.0057 C.ar    1  LIG1        0.0432
     16 C           4.1798    8.6109    1.2629 C.2     1  LIG1        0.2688
     17 C           3.2853    8.4534    2.4654 C.2     1  LIG1        0.1525
     18 C           0.7458    6.1850    1.5268 C.2     1  LIG1        0.1542
     19 C          -0.9834    5.4754    3.2182 C.ar    1  LIG1        0.0326
     20 C          -1.9010    4.7930    2.4277 C.ar    1  LIG1       -0.0405
     21 H          -1.8020    4.7776    1.4825 H       1  LIG1        0.0636
     22 C          -2.9665    4.1315    3.0317 C.ar    1  LIG1       -0.0600
     23 H          -3.5880    3.6581    2.4917 H       1  LIG1        0.0618
     24 C          -3.1369    4.1500    4.4071 C.ar    1  LIG1       -0.0616
     25 H          -3.8698    3.6957    4.8073 H       1  LIG1        0.0618
     26 C          -2.2233    4.8398    5.1935 C.ar    1  LIG1       -0.0600
     27 H          -2.3342    4.8637    6.1369 H       1  LIG1        0.0618
     28 C          -1.1473    5.4946    4.6044 C.ar    1  LIG1       -0.0405
     29 H          -0.5202    5.9580    5.1481 H       1  LIG1        0.0636
     30 C           4.0865   10.4274    7.1355 C.3     1  LIG1       -0.0397
     31 H           3.1259   10.2943    7.2786 H       1  LIG1        0.0278
     32 H           4.3271   11.3474    7.3704 H       1  LIG1        0.0278
     33 H           4.5903    9.8045    7.6995 H       1  LIG1        0.0278
     34 H           0.4771    6.7115    3.2796 H       1  LIG1        0.1539
     35 H           5.8596    9.6448    1.1053 H       1  LIG1        0.1552
     36 H           2.3182    7.1134    0.7078 H       1  LIG1        0.1763
@<TRIPOS>BOND
     1     2    16    2
     2     1    18    2
     3    36     5    1
     4    35     3    1
     5    16     3   am
     6    16    17    1
     7     5    18    1
     8     5     4    1
     9    21    20    1
    10    18     6    1
    11     3    15    1
    12    20    22   ar
    13    20    19   ar
    14    17     4    2
    15    17     7    1
    16    23    22    1
    17     6    19    1
    18     6    34    1
    19    15     7   ar
    20    15    13   ar
    21    22    24   ar
    22    19    28   ar
    23    14    13    1
    24     7     8   ar
    25    13    11   ar
    26    24    25    1
    27    24    26   ar
    28    28    29    1
    29    28    26   ar
    30     8     9    1
    31     8    10   ar
    32    11    12    1
    33    11    10   ar
    34    26    27    1
    35    10    30    1
    36    30    31    1
    37    30    32    1
    38    30    33    1
