@<TRIPOS>MOLECULE
(Diaminomethylidene)sulfonium chloride--thiourea (3/2)
 46 38 0 0 0
SMALL
GASTEIGER

@<TRIPOS>ATOM
      1 C           4.8515    5.2192    4.1223 C.2     1  LIG1        0.1250
      2 C           1.4382    4.7268    7.7199 C.2     2  LIG2        0.2933
      3 C           0.6417    7.7268    3.4627 C.2     3  LIG3        0.1250
      4 C           1.0342    2.9404    0.6062 C.2     4  LIG4        0.2933
      5 C           9.1390    5.9197    0.2286 C.2     5  LIG5        0.2933
      6 CL          4.7496    1.5201    3.3167 Cl      6  LIG6        0.0000
      7 CL          0.8049    2.3750    4.6683 Cl      7  LIG7        0.0000
      8 CL          1.4770    8.5926    7.9847 Cl      8  LIG8        0.0000
      9 H           1.6965    9.2598    4.0029 H       3  LIG3        0.1440
     10 H          -1.2627    7.9457    3.3482 H       3  LIG3        0.1440
     11 H          -0.5203    9.2114    3.7817 H       3  LIG3        0.1440
     12 H           1.4817    2.9203    2.4662 H       4  LIG4        0.1482
     13 H           2.4295    3.6548    1.6131 H       4  LIG4        0.1482
     14 H           0.9907    3.1980   -1.2697 H       4  LIG4        0.4453
     15 H           2.1615    3.8429   -0.5677 H       4  LIG4        0.4453
     16 H          10.5106    5.0254    1.1293 H       5  LIG5        0.1482
     17 H           9.5244    5.6256    2.0602 H       5  LIG5        0.1482
     18 H          10.2431    5.2135   -1.0576 H       5  LIG5        0.4453
     19 H           3.0165    4.9448    3.9816 H       1  LIG1        0.1440
     20 H           9.0929    5.9749   -1.6680 H       5  LIG5        0.4453
     21 H           3.7394    3.6996    3.9099 H       1  LIG1        0.1440
     22 H           0.9567    4.4879    5.6008 H       2  LIG2        0.1142
     23 H           5.9753    3.7444    3.9770 H       1  LIG1        0.1440
     24 H           6.7336    4.9806    4.1617 H       1  LIG1        0.1440
     25 H          -0.7600    2.0961   -0.3968 H       4  LIG4        0.1142
     26 H           1.3340    2.9651    7.0506 H       2  LIG2        0.4453
     27 H           7.3402    6.8797   -0.7234 H       5  LIG5        0.1142
     28 H           1.6640    3.0546    8.5187 H       2  LIG2        0.4453
     29 H           1.5778    6.2947    8.7583 H       2  LIG2        0.1482
     30 H           1.8164    5.0791    9.5182 H       2  LIG2        0.1482
     31 H           2.4884    7.9725    3.7603 H       3  LIG3        0.1440
     32 N           3.7212    4.5387    4.0322 N.am    1  LIG1       -0.3408
     33 N           9.8013    5.4887    1.2685 N.pl3   5  LIG5       -0.3004
     34 N           5.9905    4.5512    4.0907 N.am    1  LIG1       -0.3408
     35 N           1.4740    3.4200    7.7620 N.2     2  LIG2       -0.2362
     36 N           1.6758    5.4565    8.7831 N.pl3   2  LIG2       -0.3004
     37 N           1.7463    8.3777    3.7803 N.am    3  LIG3       -0.3408
     38 N          -0.5108    8.3744    3.5280 N.am    3  LIG3       -0.3408
     39 N           1.7398    3.1581    1.6862 N.pl3   4  LIG4       -0.3004
     40 N           1.4093    3.4004   -0.5569 N.2     4  LIG4       -0.2362
     41 N           9.5459    5.6776   -0.9852 N.2     5  LIG5       -0.2362
     42 S           4.8307    6.9228    4.2975 S.2     1  LIG1       -0.0193
     43 S           1.0909    5.5612    6.2332 S.3     2  LIG2       -0.0579
     44 S           0.7175    6.0871    2.9768 S.2     3  LIG3       -0.0193
     45 S          -0.4313    2.0185    0.7930 S.3     4  LIG4       -0.0579
     46 S           7.6804    6.8358    0.5172 S.3     5  LIG5       -0.0579
@<TRIPOS>BOND
     1    20    41    1
     2    14    40    1
     3    18    41    1
     4    41     5    2
     5    27    46    1
     6    15    40    1
     7    40     4    2
     8    25    45    1
     9     5    46    1
    10     5    33    1
    11     4    45    1
    12     4    39    1
    13    16    33    1
    14    33    17    1
    15    13    39    1
    16    39    12    1
    17    44     3    2
    18    10    38    1
    19     3    38    1
    20     3    37    1
    21    38    11    1
    22    31    37    1
    23    37     9    1
    24    21    32    1
    25    23    34    1
    26    19    32    1
    27    32     1    1
    28    34     1    1
    29    34    24    1
    30     1    42    2
    31    22    43    1
    32    43     2    1
    33    26    35    1
    34     2    35    2
    35     2    36    1
    36    35    28    1
    37    29    36    1
    38    36    30    1
