@<TRIPOS>MOLECULE
(<i>E</i>)-2-{[(2-(Trifluoromethyl)phenyl]iminomethyl}phenol
 29 30 0 0 0
SMALL
GASTEIGER

@<TRIPOS>ATOM
      1 C           8.1602    5.0908   10.2459 C.ar    1  LIG1        0.0345
      2 C           7.8209    5.2069    8.9030 C.ar    1  LIG1        0.1254
      3 C           6.8715    6.1459    8.5252 C.ar    1  LIG1       -0.0195
      4 H           6.6368    6.2284    7.6291 H       1  LIG1        0.0654
      5 C           6.2766    6.9516    9.4571 C.ar    1  LIG1       -0.0583
      6 H           5.6491    7.5807    9.1840 H       1  LIG1        0.0619
      7 C           6.5911    6.8473   10.7854 C.ar    1  LIG1       -0.0609
      8 H           6.1762    7.3955   11.4111 H       1  LIG1        0.0618
      9 C           7.5250    5.9230   11.1818 C.ar    1  LIG1       -0.0496
     10 H           7.7396    5.8461   12.0832 H       1  LIG1        0.0625
     11 C           9.1659    4.1517   10.6992 C.2     1  LIG1        0.0389
     12 H           9.3786    4.1268   11.6033 H       1  LIG1        0.0837
     13 C          10.7160    2.4390   10.3877 C.ar    1  LIG1        0.0755
     14 C          10.8666    2.1016   11.7226 C.ar    1  LIG1       -0.0358
     15 H          10.3051    2.4915   12.3536 H       1  LIG1        0.0639
     16 C          11.8226    1.2063   12.1442 C.ar    1  LIG1       -0.0597
     17 H          11.9224    1.0200   13.0496 H       1  LIG1        0.0618
     18 C          12.6309    0.5879   11.2176 C.ar    1  LIG1       -0.0611
     19 H          13.2771   -0.0193   11.4960 H       1  LIG1        0.0618
     20 C          12.4821    0.8663    9.8866 C.ar    1  LIG1       -0.0481
     21 H          13.0163    0.4301    9.2622 H       1  LIG1        0.0624
     22 C          11.5380    1.7977    9.4584 C.ar    1  LIG1        0.0801
     23 C          11.4376    2.1112    8.0069 C.3     1  LIG1        0.4194
     24 N           9.7639    3.3649    9.9123 N.2     1  LIG1       -0.2543
     25 O           8.3822    4.4353    7.9576 O.3     1  LIG1       -0.5061
     26 F          12.2742    1.3819    7.2798 F       1  LIG1       -0.1658
     27 F          11.7139    3.3806    7.7386 F       1  LIG1       -0.1658
     28 F          10.2331    1.8939    7.4881 F       1  LIG1       -0.1658
     29 H           8.9234    3.9497    8.3250 H       1  LIG1        0.2922
@<TRIPOS>BOND
     1    26    23    1
     2    28    23    1
     3     4     3    1
     4    27    23    1
     5    25    29    1
     6    25     2    1
     7    23    22    1
     8     3     2   ar
     9     3     5   ar
    10     2     1   ar
    11     6     5    1
    12    21    20    1
    13     5     7   ar
    14    22    20   ar
    15    22    13   ar
    16    20    18   ar
    17    24    13    1
    18    24    11    2
    19     1    11    1
    20     1     9   ar
    21    13    14   ar
    22    11    12    1
    23     7     9   ar
    24     7     8    1
    25     9    10    1
    26    18    19    1
    27    18    16   ar
    28    14    16   ar
    29    14    15    1
    30    16    17    1
