@<TRIPOS>MOLECULE
3,3-Diethoxy-5-fluoro-2,3-dihydro-1<i>H</i>-indol-2-one
 62 64 0 0 0
SMALL
GASTEIGER

@<TRIPOS>ATOM
      1 F           5.8207    8.0434    1.0022 F       1  LIG1       -0.2055
      2 F           1.0525   -0.9703    0.8349 F       2  LIG2       -0.2055
      3 O           8.8559    3.5752    5.7196 O.2     1  LIG1       -0.2691
      4 O           9.5535    6.3024    4.3591 O.3     1  LIG1       -0.3380
      5 O           9.4925    4.3484    3.0616 O.3     1  LIG1       -0.3380
      6 O           4.1872    3.2711    5.6962 O.2     2  LIG2       -0.2691
      7 O           4.8044    2.5249    3.0370 O.3     2  LIG2       -0.3380
      8 O           4.8577    0.5492    4.3050 O.3     2  LIG2       -0.3380
      9 N           6.8588    4.4858    5.0262 N.am    1  LIG1       -0.2803
     10 H           6.3342    4.0642    5.5482 H       1  LIG1        0.1550
     11 N           2.1849    2.3443    5.0348 N.am    2  LIG2       -0.2803
     12 H           1.6765    2.7954    5.5737 H       2  LIG2        0.1550
     13 C           6.4263    5.3605    4.0096 C.ar    1  LIG1        0.0425
     14 C           5.1292    5.7447    3.7285 C.ar    1  LIG1       -0.0373
     15 H           4.3950    5.4023    4.2251 H       1  LIG1        0.0637
     16 C           4.9386    6.6558    2.6867 C.ar    1  LIG1       -0.0247
     17 H           4.0637    6.9449    2.4564 H       1  LIG1        0.0647
     18 C           6.0285    7.1300    1.9974 C.ar    1  LIG1        0.1240
     19 C           7.3369    6.7489    2.2626 C.ar    1  LIG1       -0.0159
     20 H           8.0696    7.0947    1.7659 H       1  LIG1        0.0651
     21 C           7.5156    5.8367    3.2911 C.ar    1  LIG1        0.0445
     22 C           8.7733    5.2379    3.8759 C.3     1  LIG1        0.2781
     23 C           8.2001    4.3225    5.0068 C.2     1  LIG1        0.2821
     24 C          10.8012    5.9365    4.9935 C.3     1  LIG1        0.0489
     25 H          11.3642    5.4142    4.3691 H       1  LIG1        0.0558
     26 H          10.6291    5.3865    5.7985 H       1  LIG1        0.0558
     27 C          11.4890    7.2075    5.3717 C.3     1  LIG1       -0.0414
     28 H          12.3413    7.0001    5.8093 H       1  LIG1        0.0252
     29 H          10.9209    7.7155    5.9883 H       1  LIG1        0.0252
     30 H          11.6557    7.7408    4.5669 H       1  LIG1        0.0252
     31 C          10.0289    4.8989    1.8464 C.3     1  LIG1        0.0489
     32 H          10.4540    5.7755    2.0244 H       1  LIG1        0.0558
     33 H           9.3080    5.0285    1.1804 H       1  LIG1        0.0558
     34 C          11.0491    3.9187    1.3289 C.3     1  LIG1       -0.0414
     35 H          11.4431    4.2641    0.5007 H       1  LIG1        0.0252
     36 H          10.6145    3.0585    1.1495 H       1  LIG1        0.0252
     37 H          11.7535    3.7959    1.9988 H       1  LIG1        0.0252
     38 C           1.7342    1.5102    3.9948 C.ar    2  LIG2        0.0425
     39 C           0.4319    1.1612    3.6978 C.ar    2  LIG2       -0.0373
     40 H          -0.2924    1.4832    4.2210 H       2  LIG2        0.0637
     41 C           0.2133    0.3265    2.6119 C.ar    2  LIG2       -0.0247
     42 H          -0.6704    0.0750    2.3716 H       2  LIG2        0.0647
     43 C           1.2901   -0.1348    1.8855 C.ar    2  LIG2        0.1240
     44 C           2.6074    0.1980    2.1730 C.ar    2  LIG2       -0.0159
     45 H           3.3306   -0.1418    1.6596 H       2  LIG2        0.0651
     46 C           2.8139    1.0503    3.2460 C.ar    2  LIG2        0.0445
     47 C           4.0829    1.6277    3.8371 C.3     2  LIG2        0.2781
     48 C           3.5234    2.5252    4.9900 C.2     2  LIG2        0.2821
     49 C           5.3166    1.9906    1.8032 C.3     2  LIG2        0.0489
     50 H           4.5807    1.8608    1.1535 H       2  LIG2        0.0558
     51 H           5.7529    1.1164    1.9638 H       2  LIG2        0.0558
     52 C           6.3121    2.9789    1.2689 C.3     2  LIG2       -0.0414
     53 H           6.6859    2.6435    0.4280 H       2  LIG2        0.0252
     54 H           7.0331    3.1016    1.9207 H       2  LIG2        0.0252
     55 H           5.8668    3.8368    1.1091 H       2  LIG2        0.0252
     56 C           6.1071    0.9063    4.9431 C.3     2  LIG2        0.0489
     57 H           5.9378    1.4957    5.7205 H       2  LIG2        0.0558
     58 H           6.6910    1.3876    4.3058 H       2  LIG2        0.0558
     59 C           6.7635   -0.3593    5.3901 C.3     2  LIG2       -0.0414
     60 H           7.6107   -0.1488    5.8362 H       2  LIG2        0.0252
     61 H           6.9368   -0.9294    4.6127 H       2  LIG2        0.0252
     62 H           6.1737   -0.8303    6.0152 H       2  LIG2        0.0252
@<TRIPOS>BOND
     1    53    52    1
     2    35    34    1
     3     2    43    1
     4     1    18    1
     5    55    52    1
     6    36    34    1
     7    50    49    1
     8    33    31    1
     9    52    49    1
    10    52    54    1
    11    34    31    1
    12    34    37    1
    13    45    44    1
    14    20    19    1
    15    49    51    1
    16    49     7    1
    17    31    32    1
    18    31     5    1
    19    43    44   ar
    20    43    41   ar
    21    18    19   ar
    22    18    16   ar
    23    44    46   ar
    24    19    21   ar
    25    42    41    1
    26    17    16    1
    27    41    39   ar
    28    16    14   ar
    29     7    47    1
    30     5    22    1
    31    46    47    1
    32    46    38   ar
    33    21    22    1
    34    21    13   ar
    35    39    38   ar
    36    39    40    1
    37    14    13   ar
    38    14    15    1
    39    47     8    1
    40    47    48    1
    41    22     4    1
    42    22    23    1
    43    38    11    1
    44    13     9    1
    45     8    56    1
    46    58    56    1
    47     4    24    1
    48    25    24    1
    49    30    27    1
    50    61    59    1
    51    56    59    1
    52    56    57    1
    53    48    11   am
    54    48     6    2
    55    24    27    1
    56    24    26    1
    57    23     9   am
    58    23     3    2
    59     9    10    1
    60    11    12    1
    61    27    28    1
    62    27    29    1
    63    59    60    1
    64    59    62    1
