@<TRIPOS>MOLECULE
Bis(2-hydroxyethanaminium) terephthalate
 20 18 0 0 0
SMALL
GASTEIGER

@<TRIPOS>ATOM
      1 C           3.7469    1.1858    3.1306 C.3     1  GLY1        0.0839
      2 H1          3.8542    0.4039    3.6940 H       1  GLY1        0.0610
      3 H2          4.5466    1.7303    3.2045 H       1  GLY1        0.0610
      4 CA          3.5335    0.7757    1.7190 C.3     1  GLY1       -0.0117
      5 HA1         3.4366    1.5653    1.1634 H       1  GLY1        0.0836
      6 HA2         4.3059    0.2797    1.4059 H       1  GLY1        0.0836
      7 C           8.7568    0.7313    4.2933 C.2     1  LIG1       -0.0509
      8 H           9.5206    1.2195    4.0858 H       1  LIG1        0.0623
      9 C           7.8674    0.3926    3.2947 C.2     1  LIG1        0.0450
     10 C           6.7425   -0.3513    3.6248 C.3     1  LIG1        0.0062
     11 H           6.1417   -0.5956    2.9583 H       1  LIG1        0.0363
     12 C           8.0953    0.8066    1.8711 C.2     1  LIG1        0.3829
     13 N           2.3247   -0.0653    1.5970 N.4     1  GLY1        0.2201
     14 H1          2.2108   -0.2986    0.7458 H       1  GLY1        0.1995
     15 H2          1.6150    0.3929    1.8769 H       1  GLY1        0.1995
     16 H3          2.4207   -0.7968    2.0945 H       1  GLY1        0.1995
     17 O           2.6195    1.9227    3.5321 O.3     1  GLY1       -0.3898
     18 H           2.6657    2.0761    4.3365 H       1  GLY1        0.2096
     19 O           7.2371    0.4703    1.0436 O.co2   1  LIG1       -0.2409
     20 O           9.1396    1.4739    1.6053 O.co2   1  LIG1       -0.2409
@<TRIPOS>BOND
     1    14    13    1
     2    19    12   ar
     3     5     4    1
     4     6     4    1
     5    13     4    1
     6    13    15    1
     7    13    16    1
     8    20    12   ar
     9     4     1    1
    10    12     9    1
    11    11    10    1
    12     1     3    1
    13     1    17    1
    14     1     2    1
    15     9    10    1
    16     9     7    2
    17    17    18    1
    18     8     7    1
