@<TRIPOS>MOLECULE
2-Chloropyrimidin-4-amine
 12 12 0 0 0
SMALL
GASTEIGER

@<TRIPOS>ATOM
      1 CL         -0.2809    5.2049    2.6188 Cl      1  LIG1       -0.0410
      2 N           0.5897    3.0401    3.7577 N.ar    1  LIG1       -0.2257
      3 N          -0.6166    4.4212    7.4142 N.pl3   1  LIG1       -0.3430
      4 H          -0.5061    3.9629    8.1503 H       1  LIG1        0.1437
      5 H          -1.0414    5.2147    7.4673 H       1  LIG1        0.1437
      6 C           0.0075    4.1877    4.0155 C.ar    1  LIG1        0.2244
      7 N          -0.4043    4.7072    5.1507 N.ar    1  LIG1       -0.2029
      8 C          -0.2020    3.9424    6.2543 C.ar    1  LIG1        0.1208
      9 C           0.4238    2.6834    6.1185 C.ar    1  LIG1       -0.0039
     10 H           0.5819    2.1428    6.8583 H       1  LIG1        0.0667
     11 C           0.7840    2.2912    4.8793 C.ar    1  LIG1        0.0340
     12 H           1.1896    1.4594    4.7844 H       1  LIG1        0.0831
@<TRIPOS>BOND
     1     1     6    1
     2     2     6   ar
     3     2    11   ar
     4     6     7   ar
     5    12    11    1
     6    11     9   ar
     7     7     8   ar
     8     9     8   ar
     9     9    10    1
    10     8     3    1
    11     3     5    1
    12     3     4    1
