@<TRIPOS>MOLECULE
(<i>Z</i>)-2-(4-Chlorobenzylidene)benzo[<i>d</i>]thiazolo[3,2-<i>a</i>]imidazol-3(2<i>H</i>)-one
 30 33 0 0 0
SMALL
GASTEIGER

@<TRIPOS>ATOM
      1 S           1.6116    1.6652    0.4998 S.2     1  LIG1       -0.0458
      2 CL         -0.8386   -0.5901   -5.8702 Cl      1  LIG1       -0.0835
      3 O           5.4478    1.8521   -0.1421 O.2     1  LIG1       -0.2660
      4 N           2.2547    2.5693    3.0489 N.ar    1  LIG1       -0.2212
      5 N           3.9251    2.3174    1.5340 N.ar    1  LIG1       -0.2528
      6 C           2.5709    2.2332    1.8373 C.ar    1  LIG1        0.1817
      7 C           3.4965    2.9140    3.6255 C.ar    1  LIG1        0.0906
      8 C           3.7625    3.3378    4.9218 C.ar    1  LIG1       -0.0342
      9 H           3.0806    3.4419    5.5452 H       1  LIG1        0.0639
     10 C           5.0929    3.6015    5.2506 C.ar    1  LIG1       -0.0596
     11 H           5.2980    3.8898    6.1099 H       1  LIG1        0.0618
     12 C           6.1267    3.4437    4.3212 C.ar    1  LIG1       -0.0597
     13 H           7.0019    3.6262    4.5791 H       1  LIG1        0.0618
     14 C           5.8749    3.0184    3.0175 C.ar    1  LIG1       -0.0356
     15 H           6.5574    2.9135    2.3939 H       1  LIG1        0.0639
     16 C           4.5511    2.7612    2.7026 C.ar    1  LIG1        0.0773
     17 C           4.3074    1.9073    0.2611 C.ar    1  LIG1        0.2716
     18 C           3.0687    1.5361   -0.4954 C.ar    1  LIG1        0.0809
     19 C           3.1628    1.1594   -1.7863 C.2     1  LIG1       -0.0355
     20 H           4.0273    1.1667   -2.1290 H       1  LIG1        0.0636
     21 C           2.1399    0.7431   -2.7345 C.ar    1  LIG1       -0.0237
     22 C           2.5543    0.4265   -4.0390 C.ar    1  LIG1       -0.0532
     23 H           3.4557    0.4927   -4.2566 H       1  LIG1        0.0624
     24 C           1.6527    0.0174   -5.0104 C.ar    1  LIG1       -0.0428
     25 H           1.9409   -0.1848   -5.8717 H       1  LIG1        0.0632
     26 C           0.3073   -0.0836   -4.6682 C.ar    1  LIG1        0.0410
     27 C          -0.1381    0.2148   -3.3911 C.ar    1  LIG1       -0.0428
     28 H          -1.0406    0.1381   -3.1807 H       1  LIG1        0.0632
     29 C           0.7711    0.6293   -2.4266 C.ar    1  LIG1       -0.0532
     30 H           0.4726    0.8337   -1.5696 H       1  LIG1        0.0624
@<TRIPOS>BOND
     1    25    24    1
     2     2    26    1
     3    24    26   ar
     4    24    22   ar
     5    26    27   ar
     6    23    22    1
     7    22    21   ar
     8    27    28    1
     9    27    29   ar
    10    21    29   ar
    11    21    19    1
    12    29    30    1
    13    20    19    1
    14    19    18    2
    15    18    17   ar
    16    18     1   ar
    17     3    17    2
    18    17     5   ar
    19     1     6   ar
    20     5     6   ar
    21     5    16   ar
    22     6     4   ar
    23    15    14    1
    24    16    14   ar
    25    16     7   ar
    26    14    12   ar
    27     4     7   ar
    28     7     8   ar
    29    12    13    1
    30    12    10   ar
    31     8    10   ar
    32     8     9    1
    33    10    11    1
