@<TRIPOS>MOLECULE
1,1'-Dibenzyl-5,5''-dichloro-1,1'',2,2''-tetrahydrodispiro[indole-3,7'- [6,9]diazatricyclo[7.3.0.0^2,6^]dodecane-8',3''-indole]-2,2''-dione
 80 88 0 0 0
SMALL
GASTEIGER

@<TRIPOS>ATOM
      1 CL          4.7550    0.6518   12.1319 Cl      1  LIG1       -0.0835
      2 CL          7.5478    1.7128    3.6235 Cl      1  LIG1       -0.0835
      3 O           4.8472    5.3382    6.2171 O.2     1  LIG1       -0.2727
      4 O           7.8185    4.4295   10.6429 O.2     1  LIG1       -0.2727
      5 N           5.2525    5.6373    9.2425 N.3     1  LIG1       -0.2787
      6 N           7.6403    5.5878    7.8120 N.3     1  LIG1       -0.2787
      7 N           4.1505    3.2679    6.9166 N.am    1  LIG1       -0.2649
      8 N           8.2628    2.5728    9.3838 N.am    1  LIG1       -0.2649
      9 C           9.0978    5.6233    7.6356 C.3     1  LIG1        0.0006
     10 H           9.3627    5.1791    6.7910 H       1  LIG1        0.0427
     11 H           9.5564    5.1757    8.3911 H       1  LIG1        0.0427
     12 C           9.4357    7.1148    7.5979 C.3     1  LIG1       -0.0387
     13 H           9.7522    7.3789    6.6972 H       1  LIG1        0.0278
     14 H          10.1401    7.3315    8.2598 H       1  LIG1        0.0278
     15 C           8.1210    7.8364    7.9468 C.3     1  LIG1       -0.0347
     16 H           8.2854    8.6115    8.5395 H       1  LIG1        0.0281
     17 H           7.6552    8.1465    7.1301 H       1  LIG1        0.0281
     18 C           7.3186    6.7551    8.6631 C.3     1  LIG1        0.0274
     19 H           7.6829    6.6146    9.5833 H       1  LIG1        0.0478
     20 C           5.8224    6.8970    8.7195 C.3     1  LIG1        0.0274
     21 H           5.4630    7.0796    7.8051 H       1  LIG1        0.0478
     22 C           5.2477    7.9007    9.7119 C.3     1  LIG1       -0.0347
     23 H           5.2513    8.8178    9.3365 H       1  LIG1        0.0281
     24 H           5.7568    7.8963   10.5615 H       1  LIG1        0.0281
     25 C           3.8165    7.3921    9.9202 C.3     1  LIG1       -0.0387
     26 H           3.1830    7.8912    9.3458 H       1  LIG1        0.0278
     27 H           3.5422    7.5040   10.8647 H       1  LIG1        0.0278
     28 C           3.8361    5.9058    9.5371 C.3     1  LIG1        0.0006
     29 H           3.5162    5.3431   10.2865 H       1  LIG1        0.0427
     30 H           3.2704    5.7371    8.7427 H       1  LIG1        0.0427
     31 C           5.5296    4.4534    8.4542 C.3     1  LIG1        0.1579
     32 C           4.8331    4.4557    7.0501 C.2     1  LIG1        0.2477
     33 C           4.1940    2.5158    8.1014 C.ar    1  LIG1        0.0423
     34 C           4.9644    3.1839    9.0610 C.ar    1  LIG1        0.0071
     35 C           5.1275    2.6335   10.3195 C.ar    1  LIG1       -0.0361
     36 H           5.6280    3.0807   10.9912 H       1  LIG1        0.0636
     37 C           4.5323    1.4012   10.5671 C.ar    1  LIG1        0.0414
     38 C           3.7681    0.7452    9.6252 C.ar    1  LIG1       -0.0416
     39 H           3.3712   -0.0930    9.8349 H       1  LIG1        0.0633
     40 C           3.5769    1.3096    8.3664 C.ar    1  LIG1       -0.0385
     41 H           3.0395    0.8792    7.7114 H       1  LIG1        0.0637
     42 C           3.5046    2.8503    5.6756 C.3     1  LIG1        0.0449
     43 H           3.7268    1.9022    5.5019 H       1  LIG1        0.0518
     44 H           3.8676    3.3885    4.9268 H       1  LIG1        0.0518
     45 C           1.9986    3.0055    5.7073 C.ar    1  LIG1       -0.0297
     46 C           1.4266    4.2560    5.8666 C.ar    1  LIG1       -0.0571
     47 H           1.9810    5.0184    5.9847 H       1  LIG1        0.0621
     48 C           0.0435    4.4004    5.8536 C.ar    1  LIG1       -0.0615
     49 H          -0.3448    5.2602    5.9628 H       1  LIG1        0.0618
     50 C          -0.7666    3.2970    5.6820 C.ar    1  LIG1       -0.0617
     51 H          -1.7103    3.3986    5.6597 H       1  LIG1        0.0618
     52 C          -0.2092    2.0573    5.5441 C.ar    1  LIG1       -0.0615
     53 H          -0.7679    1.2952    5.4440 H       1  LIG1        0.0618
     54 C           1.1736    1.9047    5.5480 C.ar    1  LIG1       -0.0571
     55 H           1.5544    1.0416    5.4409 H       1  LIG1        0.0621
     56 C           7.7416    3.8269    9.5974 C.2     1  LIG1        0.2477
     57 C           7.0962    4.3211    8.2595 C.3     1  LIG1        0.1579
     58 C           7.4596    3.1834    7.3235 C.ar    1  LIG1        0.0071
     59 C           7.2835    3.0569    5.9569 C.ar    1  LIG1       -0.0361
     60 H           6.8616    3.7419    5.4519 H       1  LIG1        0.0636
     61 C           7.7453    1.8919    5.3462 C.ar    1  LIG1        0.0414
     62 C           8.3517    0.8765    6.0675 C.ar    1  LIG1       -0.0416
     63 H           8.6311    0.0829    5.6253 H       1  LIG1        0.0633
     64 C           8.5532    1.0123    7.4365 C.ar    1  LIG1       -0.0385
     65 H           8.9806    0.3280    7.9379 H       1  LIG1        0.0637
     66 C           8.1117    2.1746    8.0458 C.ar    1  LIG1        0.0423
     67 C           8.9972    1.8711   10.4320 C.3     1  LIG1        0.0449
     68 H           8.8978    0.8961   10.2928 H       1  LIG1        0.0518
     69 H           8.5915    2.0916   11.3069 H       1  LIG1        0.0518
     70 C          10.4784    2.2103   10.4809 C.ar    1  LIG1       -0.0297
     71 C          11.1620    2.0324   11.6791 C.ar    1  LIG1       -0.0571
     72 H          10.7039    1.7044   12.4444 H       1  LIG1        0.0621
     73 C          12.5180    2.3352   11.7542 C.ar    1  LIG1       -0.0615
     74 H          12.9848    2.2032   12.5710 H       1  LIG1        0.0618
     75 C          13.1875    2.8212   10.6615 C.ar    1  LIG1       -0.0617
     76 H          14.1100    3.0401   10.7272 H       1  LIG1        0.0618
     77 C          12.5202    2.9923    9.4665 C.ar    1  LIG1       -0.0615
     78 H          12.9850    3.3208    8.7052 H       1  LIG1        0.0618
     79 C          11.1692    2.6829    9.3760 C.ar    1  LIG1       -0.0571
     80 H          10.7148    2.7967    8.5489 H       1  LIG1        0.0621
@<TRIPOS>BOND
     1     2    61    1
     2    44    42    1
     3    61    59   ar
     4    61    62   ar
     5    55    54    1
     6    53    52    1
     7    60    59    1
     8    43    42    1
     9    52    54   ar
    10    52    50   ar
    11    54    45   ar
    12    63    62    1
    13    51    50    1
    14    42    45    1
    15    42     7    1
    16    50    48   ar
    17    45    46   ar
    18    48    46   ar
    19    48    49    1
    20    46    47    1
    21    59    58   ar
    22    62    64   ar
    23     3    32    2
    24    13    12    1
    25    10     9    1
    26     7    32   am
    27     7    33    1
    28    32    31    1
    29    17    15    1
    30    58    66   ar
    31    58    57    1
    32    64    65    1
    33    64    66   ar
    34    12     9    1
    35    12    15    1
    36    12    14    1
    37     9     6    1
    38     9    11    1
    39    41    40    1
    40    21    20    1
    41     6    57    1
    42     6    18    1
    43    15    16    1
    44    15    18    1
    45    66     8    1
    46    33    40   ar
    47    33    34   ar
    48    57    31    1
    49    57    56    1
    50    40    38   ar
    51    31    34    1
    52    31     5    1
    53    80    79    1
    54    18    20    1
    55    18    19    1
    56    78    77    1
    57    20     5    1
    58    20    22    1
    59    30    28    1
    60    34    35   ar
    61     5    28    1
    62    23    22    1
    63    26    25    1
    64    79    77   ar
    65    79    70   ar
    66     8    56   am
    67     8    67    1
    68    77    75   ar
    69    28    25    1
    70    28    29    1
    71    56     4    2
    72    38    39    1
    73    38    37   ar
    74    22    25    1
    75    22    24    1
    76    25    27    1
    77    68    67    1
    78    35    37   ar
    79    35    36    1
    80    67    70    1
    81    67    69    1
    82    70    71   ar
    83    37     1    1
    84    75    76    1
    85    75    73   ar
    86    71    73   ar
    87    71    72    1
    88    73    74    1
