@<TRIPOS>MOLECULE
<i>N</i>-(Anthracen-9-ylmethyl)adamantan-1-amine
 53 58 0 0 0
SMALL
GASTEIGER

@<TRIPOS>ATOM
      1 C           0.7652    2.6345    0.1814 C.ar    1  LIG1       -0.0537
      2 H           0.1891    3.2193    0.6202 H       1  LIG1        0.0624
      3 C           0.2452    1.6476   -0.5964 C.ar    1  LIG1       -0.0612
      4 H          -0.6779    1.5695   -0.6848 H       1  LIG1        0.0618
      5 C           1.0898    0.7341   -1.2743 C.ar    1  LIG1       -0.0612
      6 H           0.7207    0.0633   -1.7993 H       1  LIG1        0.0618
      7 C           2.4375    0.8409   -1.1570 C.ar    1  LIG1       -0.0540
      8 H           2.9844    0.2405   -1.6072 H       1  LIG1        0.0624
      9 C           3.0303    1.8636   -0.3537 C.ar    1  LIG1       -0.0170
     10 C           4.4098    1.9678   -0.2137 C.ar    1  LIG1       -0.0463
     11 H           4.9574    1.3544   -0.6486 H       1  LIG1        0.0630
     12 C           4.9925    2.9678    0.5626 C.ar    1  LIG1       -0.0170
     13 C           6.4065    3.0374    0.7406 C.ar    1  LIG1       -0.0540
     14 H           6.9523    2.4134    0.3187 H       1  LIG1        0.0624
     15 C           6.9684    3.9994    1.5159 C.ar    1  LIG1       -0.0612
     16 H           7.8890    4.0125    1.6460 H       1  LIG1        0.0618
     17 C           6.1530    4.9896    2.1282 C.ar    1  LIG1       -0.0612
     18 H           6.5471    5.6622    2.6365 H       1  LIG1        0.0618
     19 C           4.8033    4.9631    1.9780 C.ar    1  LIG1       -0.0537
     20 H           4.2894    5.6284    2.3730 H       1  LIG1        0.0624
     21 C           4.1510    3.9315    1.2245 C.ar    1  LIG1       -0.0129
     22 C           2.7481    3.8142    1.1333 C.ar    1  LIG1       -0.0182
     23 C           2.1787    2.7948    0.3411 C.ar    1  LIG1       -0.0129
     24 C           1.8484    4.7466    1.9198 C.3     1  LIG1        0.0229
     25 H           1.0622    4.2614    2.2136 H       1  LIG1        0.0474
     26 H           2.3194    5.0588    2.7089 H       1  LIG1        0.0474
     27 C           0.7306    6.9748    1.8642 C.3     1  LIG1        0.0202
     28 C          -0.3722    6.4461    2.7979 C.3     1  LIG1       -0.0318
     29 H          -1.0223    5.9449    2.2799 H       1  LIG1        0.0286
     30 H           0.0179    5.8436    3.4513 H       1  LIG1        0.0286
     31 C          -1.0753    7.6034    3.5218 C.3     1  LIG1       -0.0389
     32 H          -1.7689    7.2444    4.1146 H       1  LIG1        0.0302
     33 C          -1.7138    8.5393    2.4906 C.3     1  LIG1       -0.0472
     34 H          -2.1572    9.2738    2.9432 H       1  LIG1        0.0271
     35 H          -2.3782    8.0545    1.9750 H       1  LIG1        0.0271
     36 C          -0.6248    9.0852    1.5557 C.3     1  LIG1       -0.0389
     37 H          -1.0323    9.6789    0.8906 H       1  LIG1        0.0302
     38 C           0.4055    9.8730    2.3821 C.3     1  LIG1       -0.0472
     39 H           1.0910   10.2316    1.7976 H       1  LIG1        0.0271
     40 H          -0.0299   10.6155    2.8312 H       1  LIG1        0.0271
     41 C           1.0415    8.9376    3.4174 C.3     1  LIG1       -0.0389
     42 H           1.6983    9.4384    3.9458 H       1  LIG1        0.0302
     43 C           1.7451    7.7752    2.6953 C.3     1  LIG1       -0.0318
     44 H           2.4389    8.1262    2.1137 H       1  LIG1        0.0286
     45 H           2.1641    7.1938    3.3480 H       1  LIG1        0.0286
     46 C           0.0815    7.9207    0.8411 C.3     1  LIG1       -0.0318
     47 H          -0.5624    7.4300    0.3075 H       1  LIG1        0.0286
     48 H           0.7625    8.2697    0.2455 H       1  LIG1        0.0286
     49 C          -0.0413    8.3777    4.3494 C.3     1  LIG1       -0.0472
     50 H           0.3623    7.7887    5.0052 H       1  LIG1        0.0271
     51 H          -0.4768    9.1051    4.8217 H       1  LIG1        0.0271
     52 N           1.4304    5.9090    1.1123 N.3     1  LIG1       -0.3065
     53 H           0.9158    5.6453    0.4591 H       1  LIG1        0.1228
@<TRIPOS>BOND
     1     6     5    1
     2     8     7    1
     3     5     7   ar
     4     5     3   ar
     5     7     9   ar
     6     4     3    1
     7    11    10    1
     8     3     1   ar
     9     9    10   ar
    10     9    23   ar
    11    10    12   ar
    12     1    23   ar
    13     1     2    1
    14    48    46    1
    15    47    46    1
    16    14    13    1
    17    23    22   ar
    18    53    52    1
    19    12    13   ar
    20    12    21   ar
    21    13    15   ar
    22    46    36    1
    23    46    27    1
    24    37    36    1
    25    52    27    1
    26    52    24    1
    27    22    21   ar
    28    22    24    1
    29    21    19   ar
    30    15    16    1
    31    15    17   ar
    32    36    38    1
    33    36    33    1
    34    39    38    1
    35    27    43    1
    36    27    28    1
    37    24    25    1
    38    24    26    1
    39    35    33    1
    40    19    17   ar
    41    19    20    1
    42    44    43    1
    43    17    18    1
    44    29    28    1
    45    38    40    1
    46    38    41    1
    47    33    34    1
    48    33    31    1
    49    43    45    1
    50    43    41    1
    51    28    30    1
    52    28    31    1
    53    41    42    1
    54    41    49    1
    55    31    32    1
    56    31    49    1
    57    49    51    1
    58    49    50    1
