@<TRIPOS>MOLECULE
4-Bromobenzoic acid--6-(4-bromophenyl)-3-methyl-1,2,4- triazolo[3,4-<i>b</i>][1,3,4]thiadiazole (1/1)
 38 40 0 0 0
SMALL
GASTEIGER

@<TRIPOS>ATOM
      1 BR          2.4362    4.4793    9.2976 Br      1  LIG1       -0.0503
      2 BR          0.4782    1.6078    7.5042 Br      2  LIG2       -0.0503
      3 N          -4.8147    1.4675   15.1283 N.ar    1  LIG1       -0.1203
      4 N          -4.3829    0.2986   15.7575 N.ar    1  LIG1       -0.1320
      5 C          -3.1593    0.0104   15.3761 C.ar    1  LIG1        0.1525
      6 N          -2.7741    0.9750   14.5006 N.ar    1  LIG1       -0.1902
      7 N          -1.6352    1.2112   13.7661 N.ar    1  LIG1       -0.1556
      8 C          -1.8322    2.2882   13.0746 C.ar    1  LIG1        0.1323
      9 S          -3.3777    3.1102   13.3070 S.2     1  LIG1       -0.0262
     10 C          -3.8102    1.8415   14.3923 C.ar    1  LIG1        0.2183
     11 C          -2.3387   -1.1400   15.8153 C.3     1  LIG1       -0.0027
     12 H          -2.7800   -1.5894   16.5395 H       1  LIG1        0.0309
     13 H          -1.4796   -0.8271   16.1077 H       1  LIG1        0.0309
     14 H          -2.2249   -1.7497   15.0823 H       1  LIG1        0.0309
     15 C          -0.8198    2.8354   12.1753 C.ar    1  LIG1        0.0090
     16 C           0.4547    2.2738   12.1442 C.ar    1  LIG1       -0.0509
     17 H           0.6608    1.5643   12.7095 H       1  LIG1        0.0625
     18 C           1.4144    2.7592   11.2806 C.ar    1  LIG1       -0.0471
     19 H           2.2589    2.3716   11.2524 H       1  LIG1        0.0629
     20 C           1.1152    3.8116   10.4704 C.ar    1  LIG1        0.0179
     21 C          -0.1422    4.3728   10.4674 C.ar    1  LIG1       -0.0471
     22 H          -0.3423    5.0774    9.8931 H       1  LIG1        0.0629
     23 C          -1.0925    3.8820   11.3191 C.ar    1  LIG1       -0.0509
     24 H          -1.9411    4.2622   11.3206 H       1  LIG1        0.0625
     25 C          -2.6008   -0.1358   10.5000 C.ar    2  LIG2        0.0589
     26 C          -2.9946    0.7257    9.4925 C.ar    2  LIG2       -0.0467
     27 H          -3.8920    0.9543    9.4109 H       2  LIG2        0.0626
     28 C          -2.0885    1.2438    8.6185 C.ar    2  LIG2       -0.0470
     29 H          -2.3619    1.8280    7.9492 H       2  LIG2        0.0629
     30 C          -0.7748    0.8946    8.7342 C.ar    2  LIG2        0.0179
     31 C          -0.3448    0.0485    9.7091 C.ar    2  LIG2       -0.0470
     32 H           0.5550   -0.1760    9.7789 H       2  LIG2        0.0629
     33 C          -1.2744   -0.4729   10.5950 C.ar    2  LIG2       -0.0467
     34 H          -0.9953   -1.0578   11.2628 H       2  LIG2        0.0626
     35 C          -3.6185   -0.6628   11.4542 C.2     2  LIG2        0.3368
     36 O          -4.7671   -0.2968   11.4646 O.2     2  LIG2       -0.2451
     37 O          -3.1385   -1.5691   12.2777 O.3     2  LIG2       -0.4771
     38 H          -3.7335   -1.8262   12.7793 H       2  LIG2        0.2954
@<TRIPOS>BOND
     1     2    30    1
     2    29    28    1
     3    28    30   ar
     4    28    26   ar
     5    30    31   ar
     6     1    20    1
     7    27    26    1
     8    26    25   ar
     9    31    32    1
    10    31    33   ar
    11    22    21    1
    12    21    20   ar
    13    21    23   ar
    14    20    18   ar
    15    25    33   ar
    16    25    35    1
    17    33    34    1
    18    19    18    1
    19    18    16   ar
    20    23    24    1
    21    23    15   ar
    22    35    36    2
    23    35    37    1
    24    16    15   ar
    25    16    17    1
    26    15     8    1
    27    37    38    1
    28     8     9   ar
    29     8     7   ar
    30     9    10   ar
    31     7     6   ar
    32    10     6   ar
    33    10     3   ar
    34     6     5   ar
    35    14    11    1
    36     3     4   ar
    37     5     4   ar
    38     5    11    1
    39    11    13    1
    40    11    12    1
