@<TRIPOS>MOLECULE
5-Bromo-2-(3-fluorophenyl)-3-methylsulfinyl-1-benzofuran
 30 32 0 0 0
SMALL
GASTEIGER

@<TRIPOS>ATOM
      1 BR          6.9158    8.7544   10.8587 Br      1  LIG1       -0.0503
      2 S           9.6682    5.3532    6.4442 S.3     1  LIG1       -0.0106
      3 F           6.1558    5.5090    0.5027 F       1  LIG1       -0.2055
      4 O           6.0879    6.6566    5.3396 O.2     1  LIG1       -0.4536
      5 O          10.4808    6.3707    7.1649 O.3     1  LIG1       -0.1572
      6 C           8.0408    6.0177    6.2698 C.ar    1  LIG1        0.0796
      7 C           7.3592    6.8783    7.2147 C.ar    1  LIG1        0.0366
      8 C           7.6112    7.3372    8.5100 C.ar    1  LIG1       -0.0359
      9 H           8.4084    7.1094    8.9733 H       1  LIG1        0.0636
     10 C           6.6441    8.1386    9.0827 C.ar    1  LIG1        0.0187
     11 C           5.4592    8.5017    8.4281 C.ar    1  LIG1       -0.0442
     12 H           4.8272    9.0581    8.8674 H       1  LIG1        0.0630
     13 C           5.2062    8.0528    7.1450 C.ar    1  LIG1       -0.0177
     14 H           4.4117    8.2860    6.6789 H       1  LIG1        0.0655
     15 C           6.1753    7.2457    6.5796 C.ar    1  LIG1        0.1369
     16 C           7.2410    5.9200    5.1719 C.ar    1  LIG1        0.1510
     17 C           7.3229    5.1941    3.9095 C.ar    1  LIG1        0.0212
     18 C           6.7002    5.7258    2.7683 C.ar    1  LIG1       -0.0158
     19 H           6.2424    6.5574    2.8016 H       1  LIG1        0.0653
     20 C           6.7769    5.0058    1.6039 C.ar    1  LIG1        0.1241
     21 C           7.4268    3.8036    1.4904 C.ar    1  LIG1       -0.0264
     22 H           7.4545    3.3402    0.6617 H       1  LIG1        0.0646
     23 C           8.0434    3.2822    2.6206 C.ar    1  LIG1       -0.0584
     24 H           8.5079    2.4549    2.5676 H       1  LIG1        0.0619
     25 C           7.9821    3.9639    3.8233 C.ar    1  LIG1       -0.0509
     26 H           8.3916    3.5937    4.5962 H       1  LIG1        0.0625
     27 C           9.2806    4.0869    7.6561 C.3     1  LIG1        0.0045
     28 H          10.1034    3.6272    7.9229 H       1  LIG1        0.0358
     29 H           8.6571    3.4402    7.2654 H       1  LIG1        0.0358
     30 H           8.8694    4.5033    8.4428 H       1  LIG1        0.0358
@<TRIPOS>BOND
     1     3    20    1
     2    22    21    1
     3    21    20   ar
     4    21    23   ar
     5    20    18   ar
     6    24    23    1
     7    23    25   ar
     8    18    19    1
     9    18    17   ar
    10    25    17   ar
    11    25    26    1
    12    17    16    1
    13    16     4   ar
    14    16     6   ar
    15     4    15   ar
    16     6     2    1
    17     6     7   ar
    18     2     5    1
    19     2    27    1
    20    15    13   ar
    21    15     7   ar
    22    14    13    1
    23    13    11   ar
    24     7     8   ar
    25    29    27    1
    26    27    28    1
    27    27    30    1
    28    11    12    1
    29    11    10   ar
    30     8     9    1
    31     8    10   ar
    32    10     1    1
