@<TRIPOS>MOLECULE
1-(Biphenyl-4-ylcarbonyl)-3-(2-chloro-4-nitrophenyl)thiourea
 42 44 0 0 0
SMALL
GASTEIGER

@<TRIPOS>ATOM
      1 S           2.6890    0.3806   28.0706 S.2     1  LIG1       -0.0182
      2 CL          4.6238    4.7494   31.0523 Cl      1  LIG1       -0.0816
      3 O           5.7545    3.7029   28.1451 O.2     1  LIG1       -0.2698
      4 O          -0.1134    2.5087   34.3347 O.2     1  LIG1       -0.1261
      5 O           1.0515    4.2784   34.7262 O.2     1  LIG1       -0.1261
      6 N           4.6312    1.9299   27.3027 N.am    1  LIG1       -0.2636
      7 H           4.5768    1.4241   26.6098 H       1  LIG1        0.1568
      8 N           3.7482    2.5327   29.3320 N.am    1  LIG1       -0.2954
      9 H           4.3693    3.1235   29.2620 H       1  LIG1        0.1539
     10 N           0.7692    3.3028   34.0490 N.pl3   1  LIG1        0.0565
     11 C           7.5084    3.8386   26.0233 C.ar    1  LIG1       -0.0490
     12 H           7.5030    4.5215   26.6550 H       1  LIG1        0.0625
     13 C           8.4498    3.8576   25.0178 C.ar    1  LIG1       -0.0533
     14 H           9.0627    4.5558   24.9853 H       1  LIG1        0.0624
     15 C           8.5060    2.8614   24.0528 C.ar    1  LIG1       -0.0178
     16 C           7.5510    1.8634   24.1471 C.ar    1  LIG1       -0.0533
     17 H           7.5505    1.1832   23.5115 H       1  LIG1        0.0624
     18 C           6.5996    1.8405   25.1465 C.ar    1  LIG1       -0.0490
     19 H           5.9710    1.1549   25.1691 H       1  LIG1        0.0625
     20 C           6.5701    2.8254   26.1155 C.ar    1  LIG1        0.0371
     21 C           9.5331    2.8723   22.9756 C.ar    1  LIG1       -0.0179
     22 C          10.4954    3.8566   22.8970 C.ar    1  LIG1       -0.0540
     23 H          10.5095    4.5318   23.5356 H       1  LIG1        0.0624
     24 C          11.4461    3.8604   21.8813 C.ar    1  LIG1       -0.0612
     25 H          12.0781    4.5417   21.8448 H       1  LIG1        0.0618
     26 C          11.4577    2.8750   20.9427 C.ar    1  LIG1       -0.0617
     27 H          12.0994    2.8744   20.2685 H       1  LIG1        0.0618
     28 C          10.5214    1.8912   21.0021 C.ar    1  LIG1       -0.0612
     29 H          10.5201    1.2143   20.3650 H       1  LIG1        0.0618
     30 C           9.5672    1.8907   22.0054 C.ar    1  LIG1       -0.0540
     31 H           8.9335    1.2110   22.0256 H       1  LIG1        0.0624
     32 C           5.6304    2.8766   27.2644 C.2     1  LIG1        0.2495
     33 C           3.6933    1.6721   28.3063 C.2     1  LIG1        0.1411
     34 C           2.9799    2.6444   30.4914 C.ar    1  LIG1        0.0513
     35 C           1.9255    1.8024   30.8434 C.ar    1  LIG1       -0.0369
     36 H           1.6994    1.0911   30.2898 H       1  LIG1        0.0637
     37 C           1.2136    2.0122   32.0050 C.ar    1  LIG1       -0.0296
     38 H           0.5205    1.4367   32.2368 H       1  LIG1        0.0641
     39 C           1.5271    3.0646   32.8121 C.ar    1  LIG1        0.1277
     40 C           2.5631    3.9138   32.5134 C.ar    1  LIG1       -0.0113
     41 H           2.7727    4.6245   33.0746 H       1  LIG1        0.0655
     42 C           3.2880    3.6914   31.3660 C.ar    1  LIG1        0.0643
@<TRIPOS>BOND
     1    27    26    1
     2    29    28    1
     3    26    28   ar
     4    26    24   ar
     5    28    30   ar
     6    25    24    1
     7    24    22   ar
     8    30    31    1
     9    30    21   ar
    10    22    21   ar
    11    22    23    1
    12    21    15    1
    13    17    16    1
    14    15    16   ar
    15    15    13   ar
    16    16    18   ar
    17    14    13    1
    18    13    11   ar
    19    18    19    1
    20    18    20   ar
    21    11    20   ar
    22    11    12    1
    23    20    32    1
    24     7     6    1
    25    32     6   am
    26    32     3    2
    27     6    33    1
    28     1    33    2
    29    33     8    1
    30     9     8    1
    31     8    34    1
    32    36    35    1
    33    34    35   ar
    34    34    42   ar
    35    35    37   ar
    36     2    42    1
    37    42    40   ar
    38    37    38    1
    39    37    39   ar
    40    40    39   ar
    41    40    41    1
    42    39    10    1
    43    10     4    2
    44    10     5    2
