@<TRIPOS>MOLECULE
2-[<i>N</i>-(4-{4-[(2-Hydroxy-5- methoxybenzylidene)amino]benzyl}phenyl)carboximidoyl]-4-methoxyphenol
 31 32 0 0 0
SMALL
GASTEIGER

@<TRIPOS>ATOM
      1 O          15.2318    4.5938    4.9194 O.3     1  LIG1       -0.5061
      2 H          15.6868    3.9986    5.3952 H       1  LIG1        0.2922
      3 O          11.4217    6.6791    8.3219 O.3     1  LIG1       -0.4951
      4 N          16.0903    3.2282    6.9811 N.2     1  LIG1       -0.2549
      5 C          14.2918    5.1029    5.7516 C.ar    1  LIG1        0.1256
      6 C          13.3612    5.9901    5.2537 C.ar    1  LIG1       -0.0161
      7 H          13.3905    6.2265    4.3547 H       1  LIG1        0.0655
      8 C          12.3879    6.5338    6.0701 C.ar    1  LIG1       -0.0165
      9 H          11.7627    7.1262    5.7172 H       1  LIG1        0.0655
     10 C          12.3401    6.1948    7.4198 C.ar    1  LIG1        0.1209
     11 C          13.2752    5.3173    7.9259 C.ar    1  LIG1       -0.0079
     12 H          13.2534    5.1015    8.8302 H       1  LIG1        0.0662
     13 C          14.2491    4.7483    7.1129 C.ar    1  LIG1        0.0379
     14 C          10.3732    7.4844    7.8125 C.3     1  LIG1        0.0788
     15 H          10.7405    8.2843    7.4298 H       1  LIG1        0.0660
     16 H           9.7742    7.7172    8.5252 H       1  LIG1        0.0660
     17 H           9.8959    6.9974    7.1371 H       1  LIG1        0.0660
     18 C          15.1987    3.8133    7.6892 C.2     1  LIG1        0.0390
     19 H          15.1599    3.6344    8.6009 H       1  LIG1        0.0837
     20 C          17.0109    2.3226    7.5657 C.ar    1  LIG1        0.0639
     21 C          16.8821    1.7588    8.8325 C.ar    1  LIG1       -0.0361
     22 H          16.1442    1.9685    9.3596 H       1  LIG1        0.0639
     23 C          17.8443    0.8890    9.3094 C.ar    1  LIG1       -0.0563
     24 H          17.7334    0.5110   10.1525 H       1  LIG1        0.0621
     25 C          18.9665    0.5639    8.5728 C.ar    1  LIG1       -0.0430
     26 C          19.0762    1.1153    7.3008 C.ar    1  LIG1       -0.0563
     27 H          19.8160    0.9102    6.7772 H       1  LIG1        0.0621
     28 C          18.1081    1.9616    6.8009 C.ar    1  LIG1       -0.0361
     29 H          18.1926    2.2946    5.9368 H       1  LIG1        0.0639
     30 C          20.0694   -0.3031    9.1485 C.3     1  LIG1       -0.0011
     31 H          19.7024   -0.7626    9.8512 H       1  LIG1        0.0361
@<TRIPOS>BOND
     1     7     6    1
     2     1     2    1
     3     1     5    1
     4     6     5   ar
     5     6     8   ar
     6     9     8    1
     7     5    13   ar
     8    29    28    1
     9     8    10   ar
    10    27    26    1
    11    28    26   ar
    12    28    20   ar
    13     4    20    1
    14     4    18    2
    15    13    18    1
    16    13    11   ar
    17    17    14    1
    18    26    25   ar
    19    10    11   ar
    20    10     3    1
    21    15    14    1
    22    20    21   ar
    23    18    19    1
    24    14     3    1
    25    14    16    1
    26    11    12    1
    27    25    30    1
    28    25    23   ar
    29    21    23   ar
    30    21    22    1
    31    30    31    1
    32    23    24    1
