@<TRIPOS>MOLECULE
4,4'-[(5-Carboxy-1,3-phenylene)bis(oxy)]dibenzoic acid
 43 45 0 0 0
SMALL
GASTEIGER

@<TRIPOS>ATOM
      1 O           3.0815   11.9816   -1.7833 O.3     1  LIG1       -0.4559
      2 O          -1.1052    9.9161   -2.3120 O.3     1  LIG1       -0.4559
      3 O          -1.3000   11.8266    2.3292 O.3     1  LIG1       -0.4771
      4 H          -1.4161   12.0288    3.1158 H       1  LIG1        0.2954
      5 O           0.8130   12.3771    2.8075 O.2     1  LIG1       -0.2451
      6 O           7.4989   15.0521    1.6024 O.2     1  LIG1       -0.2451
      7 O           8.2411   12.9516    1.6925 O.3     1  LIG1       -0.4771
      8 H           8.8320   13.3063    2.1366 H       1  LIG1        0.2954
      9 O          -6.7992   10.8897   -4.8215 O.3     1  LIG1       -0.4771
     10 H          -7.4570   11.2572   -5.1439 H       1  LIG1        0.2954
     11 O          -6.2185   13.0108   -4.4423 O.2     1  LIG1       -0.2451
     12 C           1.8710   11.6823   -1.1896 C.ar    1  LIG1        0.1327
     13 C           0.9672   11.0240   -2.0064 C.ar    1  LIG1        0.0230
     14 H           1.1925   10.8117   -2.8834 H       1  LIG1        0.0691
     15 C          -0.2694   10.6878   -1.5047 C.ar    1  LIG1        0.1327
     16 C          -0.6348   11.0106   -0.2081 C.ar    1  LIG1       -0.0051
     17 H          -1.4810   10.7983    0.1147 H       1  LIG1        0.0662
     18 C           0.2887   11.6565    0.5957 C.ar    1  LIG1        0.0658
     19 C           1.5579   11.9946    0.1226 C.ar    1  LIG1       -0.0051
     20 H           2.1755   12.4179    0.6740 H       1  LIG1        0.0662
     21 C          -0.0307   11.9919    2.0151 C.2     1  LIG1        0.3370
     22 C           4.1256   12.4561   -0.9891 C.ar    1  LIG1        0.1285
     23 C           4.2243   13.7996   -0.7076 C.ar    1  LIG1       -0.0186
     24 H           3.5764   14.3946   -1.0102 H       1  LIG1        0.0654
     25 C           5.3072   14.2538    0.0372 C.ar    1  LIG1       -0.0443
     26 H           5.3840   15.1581    0.2386 H       1  LIG1        0.0627
     27 C           6.2720   13.3640    0.4803 C.ar    1  LIG1        0.0591
     28 C           6.1645   12.0198    0.1557 C.ar    1  LIG1       -0.0443
     29 H           6.8187   11.4223    0.4369 H       1  LIG1        0.0627
     30 C           5.0883   11.5636   -0.5861 C.ar    1  LIG1       -0.0186
     31 H           5.0176   10.6627   -0.8088 H       1  LIG1        0.0654
     32 C           7.4054   13.8421    1.3044 C.2     1  LIG1        0.3368
     33 C          -2.3269   10.4248   -2.7067 C.ar    1  LIG1        0.1285
     34 C          -3.2033    9.5007   -3.2679 C.ar    1  LIG1       -0.0186
     35 H          -2.9791    8.5989   -3.3017 H       1  LIG1        0.0654
     36 C          -4.4086    9.9420   -3.7729 C.ar    1  LIG1       -0.0443
     37 H          -5.0038    9.3289   -4.1415 H       1  LIG1        0.0627
     38 C          -4.7470   11.2905   -3.7380 C.ar    1  LIG1        0.0591
     39 C          -3.8574   12.1949   -3.1650 C.ar    1  LIG1       -0.0443
     40 H          -4.0781   13.0983   -3.1344 H       1  LIG1        0.0627
     41 C          -2.6494   11.7682   -2.6415 C.ar    1  LIG1       -0.0186
     42 H          -2.0633   12.3763   -2.2512 H       1  LIG1        0.0654
     43 C          -5.9928   11.7799   -4.3610 C.2     1  LIG1        0.3368
@<TRIPOS>BOND
     1    10     9    1
     2     9    43    1
     3    11    43    2
     4    43    38    1
     5    37    36    1
     6    36    38   ar
     7    36    34   ar
     8    38    39   ar
     9    35    34    1
    10    34    33   ar
    11    39    40    1
    12    39    41   ar
    13    14    13    1
    14    33    41   ar
    15    33     2    1
    16    41    42    1
    17     2    15    1
    18    13    15   ar
    19    13    12   ar
    20     1    12    1
    21     1    22    1
    22    15    16   ar
    23    12    19   ar
    24    24    23    1
    25    22    23   ar
    26    22    30   ar
    27    31    30    1
    28    23    25   ar
    29    30    28   ar
    30    16    17    1
    31    16    18   ar
    32    25    26    1
    33    25    27   ar
    34    19    18   ar
    35    19    20    1
    36    28    29    1
    37    28    27   ar
    38    27    32    1
    39    18    21    1
    40    32     6    2
    41    32     7    1
    42     7     8    1
    43    21     3    1
    44    21     5    2
    45     3     4    1
