@<TRIPOS>MOLECULE
3-Carbamoyl-2,2-dimethylcyclopentane-1,1-dicarboxylic acid
 31 31 0 0 0
SMALL
GASTEIGER

@<TRIPOS>ATOM
      1 C           7.0282    2.2544    1.8684 C.3     1  LIG1        0.0420
      2 H           7.8504    2.6118    1.4717 H       1  LIG1        0.0400
      3 C           6.0048    2.0660    0.6911 C.3     1  LIG1        0.0022
      4 C           6.5690    0.7539    0.0255 C.3     1  LIG1        0.1692
      5 C           6.9984   -0.1235    1.2263 C.3     1  LIG1       -0.0256
      6 H           6.2726   -0.7091    1.4940 H       1  LIG1        0.0281
      7 H           7.7654   -0.6685    0.9894 H       1  LIG1        0.0281
      8 C           7.3559    0.8386    2.3611 C.3     1  LIG1       -0.0399
      9 H           8.2989    0.7677    2.5798 H       1  LIG1        0.0273
     10 H           6.8391    0.6298    3.1561 H       1  LIG1        0.0273
     11 C           4.6004    1.8205    1.2624 C.3     1  LIG1       -0.0576
     12 H           4.3105    2.5995    1.7438 H       1  LIG1        0.0236
     13 H           4.6239    1.0679    1.8575 H       1  LIG1        0.0236
     14 H           3.9894    1.6420    0.5442 H       1  LIG1        0.0236
     15 C           5.9940    3.2703   -0.2468 C.3     1  LIG1       -0.0576
     16 H           5.4332    3.0820   -1.0042 H       1  LIG1        0.0236
     17 H           6.8882    3.4493   -0.5466 H       1  LIG1        0.0236
     18 H           5.6541    4.0366    0.2201 H       1  LIG1        0.0236
     19 C           6.5680    3.2647    2.9036 C.2     1  LIG1        0.2141
     20 C           5.5869    0.0103   -0.8783 C.2     1  LIG1        0.3224
     21 C           7.7995    1.1203   -0.8103 C.2     1  LIG1        0.3224
     22 N           6.0506    2.8521    4.0431 N.am    1  LIG1       -0.3291
     23 O           6.6875    4.4842    2.6661 O.2     1  LIG1       -0.2757
     24 O           8.8659    1.3885   -0.3233 O.2     1  LIG1       -0.2498
     25 O           7.5706    1.1361   -2.1076 O.3     1  LIG1       -0.4798
     26 O           4.6075    0.4833   -1.3970 O.2     1  LIG1       -0.2498
     27 O           5.9355   -1.2487   -1.0280 O.3     1  LIG1       -0.4798
     28 H           5.8354    3.4842    4.5981 H       1  LIG1        0.1449
     29 H           5.9298    1.9923    4.2172 H       1  LIG1        0.1449
     30 H           8.2054    1.3597   -2.4635 H       1  LIG1        0.2951
     31 H           5.3633   -1.6619   -1.5360 H       1  LIG1        0.2951
@<TRIPOS>BOND
     1    30    25    1
     2    25    21    1
     3    31    27    1
     4    26    20    2
     5    27    20    1
     6    16    15    1
     7    20     4    1
     8    21    24    2
     9    21     4    1
    10    17    15    1
    11    15    18    1
    12    15     3    1
    13     4     3    1
    14     4     5    1
    15    14    11    1
    16     3    11    1
    17     3     1    1
    18     7     5    1
    19     5     6    1
    20     5     8    1
    21    11    12    1
    22    11    13    1
    23     2     1    1
    24     1     8    1
    25     1    19    1
    26     8     9    1
    27     8    10    1
    28    23    19    2
    29    19    22   am
    30    22    29    1
    31    22    28    1
