@<TRIPOS>MOLECULE
Triethylammonium (2<i>R</i>,3<i>R</i>)-2,3-bis(benzoyloxy)-3-carboxypropanoate
 62 62 0 0 0
SMALL
GASTEIGER

@<TRIPOS>ATOM
      1 C           9.3251    4.0866   14.6181 C.ar    1  LIG1        0.0590
      2 C           8.5804    4.3430   15.7604 C.ar    1  LIG1       -0.0478
      3 H           8.6769    5.1557   16.2003 H       1  LIG1        0.0626
      4 C           7.6922    3.3952   16.2523 C.ar    1  LIG1       -0.0610
      5 H           7.1909    3.5731   17.0154 H       1  LIG1        0.0618
      6 C           7.5588    2.1903   15.5993 C.ar    1  LIG1       -0.0617
      7 H           6.9700    1.5515   15.9308 H       1  LIG1        0.0618
      8 C           8.2933    1.9166   14.4546 C.ar    1  LIG1       -0.0610
      9 H           8.1935    1.1010   14.0200 H       1  LIG1        0.0618
     10 C           9.1793    2.8668   13.9595 C.ar    1  LIG1       -0.0478
     11 H           9.6728    2.6889   13.1922 H       1  LIG1        0.0626
     12 C          10.2492    5.1350   14.1235 C.2     1  LIG1        0.3401
     13 C          11.8484    5.6376   12.4175 C.3     1  LIG1        0.2502
     14 H          11.9909    6.4048   13.0103 H       1  LIG1        0.0899
     15 C          13.2054    5.0031   12.1015 C.2     1  LIG1        0.4002
     16 C          11.1755    6.1286   11.1372 C.3     1  LIG1        0.2460
     17 H          11.8518    6.5268   10.5493 H       1  LIG1        0.0898
     18 C          10.0821    7.1621   11.4203 C.2     1  LIG1        0.3504
     19 C          10.1214    5.1739    9.2651 C.2     1  LIG1        0.3401
     20 C           9.4216    3.9801    8.7267 C.ar    1  LIG1        0.0590
     21 C           9.6739    2.6980    9.2079 C.ar    1  LIG1       -0.0478
     22 H          10.2840    2.5681    9.8969 H       1  LIG1        0.0626
     23 C           9.0066    1.6190    8.6496 C.ar    1  LIG1       -0.0610
     24 H           9.1860    0.7582    8.9543 H       1  LIG1        0.0618
     25 C           8.0780    1.8125    7.6480 C.ar    1  LIG1       -0.0617
     26 H           7.6328    1.0828    7.2827 H       1  LIG1        0.0618
     27 C           7.8100    3.0758    7.1885 C.ar    1  LIG1       -0.0610
     28 H           7.1707    3.2030    6.5251 H       1  LIG1        0.0618
     29 C           8.4918    4.1664    7.7129 C.ar    1  LIG1       -0.0478
     30 H           8.3247    5.0207    7.3848 H       1  LIG1        0.0626
     31 C           6.2960    5.2934   11.5063 C.3     2  LIG2       -0.0348
     32 H           7.1427    4.8221   11.5158 H       2  LIG2        0.0812
     33 H           6.3397    5.9971   12.1714 H       2  LIG2        0.0812
     34 C           6.0919    5.9127   10.1457 C.3     2  LIG2       -0.0245
     35 H           5.2250    6.3243   10.1075 H       2  LIG2        0.0281
     36 H           6.1524    5.2323    9.4711 H       2  LIG2        0.0281
     37 H           6.7670    6.5774    9.9926 H       2  LIG2        0.0281
     38 C           5.0668    3.1797   10.9321 C.3     2  LIG2       -0.0348
     39 H           4.8784    3.5172   10.0421 H       2  LIG2        0.0812
     40 H           4.3076    2.6447   11.2112 H       2  LIG2        0.0812
     41 C           6.2848    2.2942   10.8635 C.3     2  LIG2       -0.0245
     42 H           6.4508    1.9099   11.7280 H       2  LIG2        0.0281
     43 H           7.0440    2.8148   10.5923 H       2  LIG2        0.0281
     44 H           6.1345    1.5918   10.2255 H       2  LIG2        0.0281
     45 C           5.2911    3.8743   13.2947 C.3     2  LIG2       -0.0348
     46 H           6.1670    3.4848   13.4442 H       2  LIG2        0.0812
     47 H           4.6306    3.1771   13.4362 H       2  LIG2        0.0812
     48 C           5.0668    4.9701   14.3018 C.3     2  LIG2       -0.0245
     49 H           4.2583    5.4414   14.0870 H       2  LIG2        0.0281
     50 H           5.8081    5.5803   14.2815 H       2  LIG2        0.0281
     51 H           4.9917    4.5884   15.1795 H       2  LIG2        0.0281
     52 N           5.2051    4.3447   11.8699 N.4     2  LIG2        0.2346
     53 H           4.3850    4.8299   11.8173 H       2  LIG2        0.2033
     54 O          10.9912    4.6965   13.0807 O.3     1  LIG1       -0.4418
     55 O          10.3618    6.2429   14.5846 O.2     1  LIG1       -0.2449
     56 O          13.3871    3.7742   12.2559 O.co2   1  LIG1       -0.2420
     57 O          14.0765    5.8136   11.7195 O.co2   1  LIG1       -0.2420
     58 O          10.6505    8.3190   11.7042 O.3     1  LIG1       -0.4779
     59 H           9.9924    8.9716   11.7232 H       1  LIG1        0.2952
     60 O           8.9095    6.9424   11.3774 O.2     1  LIG1       -0.2467
     61 O          10.6209    4.9640   10.5008 O.3     1  LIG1       -0.4419
     62 O          10.2285    6.2284    8.6852 O.2     1  LIG1       -0.2449
@<TRIPOS>BOND
     1    28    27    1
     2    27    25   ar
     3    27    29   ar
     4    26    25    1
     5    30    29    1
     6    25    23   ar
     7    29    20   ar
     8    23    24    1
     9    23    21   ar
    10    62    19    2
    11    20    21   ar
    12    20    19    1
    13    21    22    1
    14    19    61    1
    15    36    34    1
    16    37    34    1
    17    39    38    1
    18    35    34    1
    19    34    31    1
    20    44    41    1
    21    61    16    1
    22    17    16    1
    23    43    41    1
    24    41    38    1
    25    41    42    1
    26    38    40    1
    27    38    52    1
    28    16    18    1
    29    16    13    1
    30    60    18    2
    31    18    58    1
    32    31    32    1
    33    31    52    1
    34    31    33    1
    35    58    59    1
    36    57    15   ar
    37    53    52    1
    38    52    45    1
    39    15    56   ar
    40    15    13    1
    41    13    14    1
    42    13    54    1
    43    54    12    1
    44    11    10    1
    45    45    47    1
    46    45    46    1
    47    45    48    1
    48    10     8   ar
    49    10     1   ar
    50     9     8    1
    51    49    48    1
    52    12    55    2
    53    12     1    1
    54    50    48    1
    55    48    51    1
    56     8     6   ar
    57     1     2   ar
    58     6     7    1
    59     6     4   ar
    60     2     3    1
    61     2     4   ar
    62     4     5    1
