@<TRIPOS>MOLECULE
3,4-Dimethoxy-4'-nitro-1,1'-biphenyl
 64 66 0 0 0
SMALL
GASTEIGER

@<TRIPOS>ATOM
      1 O           3.5105    4.8293    4.8127 O.3     1  LIG1       -0.4915
      2 O           4.2254    2.8578    6.3041 O.3     1  LIG1       -0.4914
      3 C           7.2957    4.9147    6.5443 C.ar    1  LIG1       -0.0142
      4 N           8.8704    2.8091   -1.5764 N.pl3   2  LIG2        0.0564
      5 C          10.1246    2.8609   -0.8283 C.ar    2  LIG2        0.1262
      6 O          17.0987    3.3871    3.8078 O.3     2  LIG2       -0.4915
      7 C           6.3953    3.8591    6.7641 C.ar    1  LIG1       -0.0086
      8 H           6.6441    3.1515    7.3133 H       1  LIG1        0.0661
      9 C           5.1493    3.8572    6.1778 C.ar    1  LIG1        0.1621
     10 C          11.2819    2.6050    1.2144 C.ar    2  LIG2       -0.0519
     11 H          11.2752    2.4107    2.1248 H       2  LIG2        0.0624
     12 C          13.7369    2.9632    1.3959 C.ar    2  LIG2       -0.0142
     13 C          12.4939    2.9065    0.5933 C.ar    2  LIG2       -0.0176
     14 C           8.8637    4.3729    8.4222 C.ar    1  LIG1       -0.0519
     15 H           8.1430    4.0315    8.9018 H       1  LIG1        0.0624
     16 C          14.6344    4.0262    1.2388 C.ar    2  LIG2       -0.0086
     17 H          14.4790    4.6637    0.5808 H       2  LIG2        0.0661
     18 C           6.8856    5.9693    5.7545 C.ar    1  LIG1       -0.0503
     19 H           7.4625    6.6833    5.6074 H       1  LIG1        0.0625
     20 O          16.6491    5.1661    1.9930 O.3     2  LIG2       -0.4914
     21 C           8.6471    4.8897    7.1530 C.ar    1  LIG1       -0.0176
     22 N          12.5202    4.8068    8.8686 N.pl3   1  LIG1        0.0564
     23 C           4.7529    4.9323    5.3666 C.ar    1  LIG1        0.1615
     24 C          14.0078    2.0051    2.3573 C.ar    2  LIG2       -0.0503
     25 H          13.4259    1.2880    2.4668 H       2  LIG2        0.0625
     26 O           7.8514    2.4483   -0.9901 O.2     2  LIG2       -0.1261
     27 C          15.7446    4.1410    2.0477 C.ar    2  LIG2        0.1621
     28 C          11.1807    4.8420    8.2672 C.ar    1  LIG1        0.1262
     29 C          10.1225    4.3530    8.9917 C.ar    1  LIG1       -0.0309
     30 H          10.2499    4.0147    9.8489 H       1  LIG1        0.0640
     31 C          11.0147    5.3632    7.0033 C.ar    1  LIG1       -0.0309
     32 H          11.7424    5.6907    6.5261 H       1  LIG1        0.0640
     33 C          11.2949    3.1584   -1.4875 C.ar    2  LIG2       -0.0309
     34 H          11.2916    3.3359   -2.4000 H       2  LIG2        0.0640
     35 C          15.9967    3.1683    3.0316 C.ar    2  LIG2        0.1615
     36 C          10.1035    2.5874    0.5191 C.ar    2  LIG2       -0.0309
     37 H           9.3020    2.3938    0.9491 H       2  LIG2        0.0640
     38 C           5.6232    5.9807    5.1752 C.ar    1  LIG1       -0.0157
     39 H           5.3640    6.7039    4.6523 H       1  LIG1        0.0655
     40 C           9.7519    5.3907    6.4603 C.ar    1  LIG1       -0.0519
     41 H           9.6297    5.7519    5.6114 H       1  LIG1        0.0624
     42 C          12.4751    3.1874   -0.7714 C.ar    2  LIG2       -0.0519
     43 H          13.2691    3.3979   -1.2061 H       2  LIG2        0.0624
     44 O           8.8847    3.1017   -2.7574 O.2     2  LIG2       -0.1261
     45 O          12.6295    4.4609   10.0281 O.2     1  LIG1       -0.1261
     46 C          15.1345    2.1015    3.1592 C.ar    2  LIG2       -0.0157
     47 H          15.3102    1.4395    3.7882 H       2  LIG2        0.0655
     48 C           2.9947    5.9769    4.1348 C.3     1  LIG1        0.0790
     49 H           2.9465    6.7154    4.7474 H       1  LIG1        0.0660
     50 H           2.1170    5.7825    3.7983 H       1  LIG1        0.0660
     51 H           3.5752    6.2050    3.4037 H       1  LIG1        0.0660
     52 C           4.5202    1.7831    7.1917 C.3     1  LIG1        0.0790
     53 H           5.3236    1.3423    6.9045 H       1  LIG1        0.0660
     54 H           3.7922    1.1564    7.1878 H       1  LIG1        0.0660
     55 H           4.6429    2.1260    8.0802 H       1  LIG1        0.0660
     56 O          13.4668    5.1397    8.1877 O.2     1  LIG1       -0.1261
     57 C          16.3781    6.2310    1.0808 C.3     2  LIG2        0.0790
     58 H          16.3408    5.8835    0.1862 H       2  LIG2        0.0660
     59 H          17.0757    6.8876    1.1393 H       2  LIG2        0.0660
     60 H          15.5365    6.6358    1.3032 H       2  LIG2        0.0660
     61 C          17.3815    2.4352    4.8303 C.3     2  LIG2        0.0790
     62 H          16.6396    2.3892    5.4394 H       2  LIG2        0.0660
     63 H          18.1714    2.7030    5.3079 H       2  LIG2        0.0660
     64 H          17.5236    1.5727    4.4337 H       2  LIG2        0.0660
@<TRIPOS>BOND
     1    44     4    2
     2    34    33    1
     3     4    26    2
     4     4     5    1
     5    33     5   ar
     6    33    42   ar
     7    43    42    1
     8     5    36   ar
     9    42    13   ar
    10    58    57    1
    11    36    37    1
    12    36    10   ar
    13    17    16    1
    14    13    10   ar
    15    13    12    1
    16    57    59    1
    17    57    60    1
    18    57    20    1
    19    10    11    1
    20    16    12   ar
    21    16    27   ar
    22    12    24   ar
    23    20    27    1
    24    27    35   ar
    25    24    25    1
    26    24    46   ar
    27    35    46   ar
    28    35     6    1
    29    46    47    1
    30    51    48    1
    31    50    48    1
    32     6    61    1
    33    48    49    1
    34    48     1    1
    35    64    61    1
    36    39    38    1
    37     1    23    1
    38    61    63    1
    39    61    62    1
    40    38    23   ar
    41    38    18   ar
    42    23     9   ar
    43    19    18    1
    44    41    40    1
    45    18     3   ar
    46     9     2    1
    47     9     7   ar
    48     2    52    1
    49    40    31   ar
    50    40    21   ar
    51    32    31    1
    52     3     7   ar
    53     3    21    1
    54     7     8    1
    55    53    52    1
    56    31    28   ar
    57    21    14   ar
    58    54    52    1
    59    52    55    1
    60    56    22    2
    61    28    22    1
    62    28    29   ar
    63    14    15    1
    64    14    29   ar
    65    22    45    2
    66    29    30    1
