@<TRIPOS>MOLECULE
<i>N</i>-(2,4-Dimethylphenyl)-2,2-diphenylacetamide
 90 94 0 0 0
SMALL
GASTEIGER

@<TRIPOS>ATOM
      1 O           1.6764    2.8819    3.9181 O.2     1  LIG1       -0.2744
      2 N          -0.2832    2.2711    2.9475 N.am    1  LIG1       -0.2845
      3 C          -0.3328    1.2593    6.9731 C.ar    1  LIG1       -0.0575
      4 H          -1.0986    0.8890    6.5508 H       1  LIG1        0.0621
      5 C           0.2005    0.6447    8.1104 C.ar    1  LIG1       -0.0615
      6 H          -0.2165   -0.1303    8.4671 H       1  LIG1        0.0618
      7 C           1.3345    1.1594    8.7180 C.ar    1  LIG1       -0.0617
      8 H           1.6920    0.7375    9.4909 H       1  LIG1        0.0618
      9 C           1.9459    2.2874    8.1981 C.ar    1  LIG1       -0.0615
     10 H           2.7339    2.6326    8.6019 H       1  LIG1        0.0618
     11 C           1.3997    2.9149    7.0808 C.ar    1  LIG1       -0.0575
     12 H           1.8101    3.6988    6.7353 H       1  LIG1        0.0621
     13 C           0.2516    2.4045    6.4605 C.ar    1  LIG1       -0.0312
     14 C          -0.3509    3.0800    5.2316 C.3     1  LIG1        0.0858
     15 H          -1.2695    2.7060    5.1065 H       1  LIG1        0.0492
     16 C          -0.4969    4.5863    5.4104 C.ar    1  LIG1       -0.0312
     17 C           0.2398    5.5240    4.7094 C.ar    1  LIG1       -0.0575
     18 H           0.9035    5.2349    4.0934 H       1  LIG1        0.0621
     19 C           0.0203    6.8863    4.8936 C.ar    1  LIG1       -0.0615
     20 H           0.5351    7.5189    4.4074 H       1  LIG1        0.0618
     21 C          -0.9417    7.3211    5.7843 C.ar    1  LIG1       -0.0617
     22 H          -1.1049    8.2503    5.8961 H       1  LIG1        0.0618
     23 C          -1.6647    6.3952    6.5064 C.ar    1  LIG1       -0.0615
     24 H          -2.3091    6.6911    7.1399 H       1  LIG1        0.0618
     25 C          -1.4583    5.0411    6.3205 C.ar    1  LIG1       -0.0575
     26 H          -1.9742    4.4134    6.8134 H       1  LIG1        0.0621
     27 C           0.4547    2.7328    3.9789 C.2     1  LIG1        0.2290
     28 C           0.3131    1.9456    1.6822 C.ar    1  LIG1        0.0364
     29 C           0.0646    2.7663    0.5951 C.ar    1  LIG1       -0.0400
     30 H          -0.4989    3.5254    0.6902 H       1  LIG1        0.0636
     31 C           0.6477    2.4740   -0.6487 C.ar    1  LIG1       -0.0571
     32 H           0.4806    3.0401   -1.3928 H       1  LIG1        0.0621
     33 C           1.4625    1.3690   -0.7963 C.ar    1  LIG1       -0.0501
     34 C           1.6813    0.5490    0.3093 C.ar    1  LIG1       -0.0542
     35 H           2.2283   -0.2212    0.2040 H       1  LIG1        0.0623
     36 C           1.1310    0.8116    1.5584 C.ar    1  LIG1       -0.0290
     37 C           2.1213    1.0597   -2.1134 C.3     1  LIG1       -0.0397
     38 H           1.5909    1.4451   -2.8425 H       1  LIG1        0.0278
     39 H           2.1776    0.0878   -2.2303 H       1  LIG1        0.0278
     40 H           3.0224    1.4435   -2.1256 H       1  LIG1        0.0278
     41 C           1.4238   -0.1064    2.7192 C.3     1  LIG1       -0.0379
     42 H           1.6203   -1.0057    2.3829 H       1  LIG1        0.0278
     43 H           0.6439   -0.1433    3.3109 H       1  LIG1        0.0278
     44 H           2.1961    0.2319    3.2168 H       1  LIG1        0.0278
     45 O           6.4551    1.9645    3.8787 O.2     2  LIG2       -0.2744
     46 N           4.5039    2.6073    2.9179 N.am    2  LIG2       -0.2845
     47 C           4.5909    3.8101    6.5178 C.ar    2  LIG2       -0.0575
     48 H           4.1164    4.2469    5.8198 H       2  LIG2        0.0621
     49 C           4.9356    4.5246    7.6633 C.ar    2  LIG2       -0.0615
     50 H           4.6756    5.4327    7.7538 H       2  LIG2        0.0618
     51 C           5.6633    3.9023    8.6713 C.ar    2  LIG2       -0.0617
     52 H           5.9095    4.3831    9.4518 H       2  LIG2        0.0618
     53 C           6.0237    2.5780    8.5246 C.ar    2  LIG2       -0.0615
     54 H           6.5261    2.1527    9.2087 H       2  LIG2        0.0618
     55 C           5.6636    1.8561    7.3920 C.ar    2  LIG2       -0.0575
     56 H           5.9194    0.9458    7.3102 H       2  LIG2        0.0621
     57 C           4.9300    2.4652    6.3801 C.ar    2  LIG2       -0.0312
     58 C           4.4130    1.7104    5.1597 C.3     2  LIG2        0.0858
     59 H           3.4833    2.0389    4.9965 H       2  LIG2        0.0492
     60 C           4.3117    0.2042    5.3439 C.ar    2  LIG2       -0.0312
     61 C           3.1504   -0.3009    5.9387 C.ar    2  LIG2       -0.0575
     62 H           2.4730    0.2974    6.2296 H       2  LIG2        0.0621
     63 C           2.9771   -1.6680    6.1072 C.ar    2  LIG2       -0.0615
     64 H           2.1881   -1.9973    6.5206 H       2  LIG2        0.0618
     65 C           3.9501   -2.5543    5.6743 C.ar    2  LIG2       -0.0617
     66 H           3.8261   -3.4907    5.7790 H       2  LIG2        0.0618
     67 C           5.1042   -2.0636    5.0891 C.ar    2  LIG2       -0.0615
     68 H           5.7733   -2.6689    4.7907 H       2  LIG2        0.0618
     69 C           5.2969   -0.6967    4.9308 C.ar    2  LIG2       -0.0575
     70 H           6.1005   -0.3740    4.5405 H       2  LIG2        0.0621
     71 C           5.2326    2.0962    3.9266 C.2     2  LIG2        0.2290
     72 C           5.1057    3.0350    1.6826 C.ar    2  LIG2        0.0364
     73 C           4.8901    2.2869    0.5376 C.ar    2  LIG2       -0.0400
     74 H           4.3510    1.5068    0.5784 H       2  LIG2        0.0636
     75 C           5.4599    2.6723   -0.6742 C.ar    2  LIG2       -0.0571
     76 H           5.3159    2.1477   -1.4532 H       2  LIG2        0.0621
     77 C           6.2370    3.8224   -0.7497 C.ar    2  LIG2       -0.0501
     78 C           6.4237    4.5684    0.4028 C.ar    2  LIG2       -0.0542
     79 H           6.9472    5.3599    0.3513 H       2  LIG2        0.0623
     80 C           5.8757    4.2049    1.6393 C.ar    2  LIG2       -0.0290
     81 C           6.8860    4.2422   -2.0476 C.3     2  LIG2       -0.0397
     82 H           6.6920    5.1870   -2.2197 H       2  LIG2        0.0278
     83 H           6.5324    3.6972   -2.7804 H       2  LIG2        0.0278
     84 H           7.8559    4.1144   -1.9837 H       2  LIG2        0.0278
     85 C           6.1130    5.0486    2.8549 C.3     2  LIG2       -0.0379
     86 H           6.3366    5.9628    2.5799 H       2  LIG2        0.0278
     87 H           6.8552    4.6734    3.3730 H       2  LIG2        0.0278
     88 H           5.3027    5.0635    3.4067 H       2  LIG2        0.0278
     89 H          -1.1552    2.2263    3.0518 H       1  LIG1        0.1548
     90 H           3.6497    2.6143    3.0341 H       2  LIG2        0.1548
@<TRIPOS>BOND
     1    38    37    1
     2    83    81    1
     3    39    37    1
     4    82    81    1
     5    40    37    1
     6    37    33    1
     7    81    84    1
     8    81    77    1
     9    76    75    1
    10    32    31    1
    11    33    31   ar
    12    33    34   ar
    13    77    75   ar
    14    77    78   ar
    15    75    73   ar
    16    31    29   ar
    17    35    34    1
    18    34    36   ar
    19    79    78    1
    20    78    80   ar
    21    73    74    1
    22    73    72   ar
    23    29    30    1
    24    29    28   ar
    25    36    28   ar
    26    36    41    1
    27    80    72   ar
    28    80    85    1
    29    28     2    1
    30    72    46    1
    31    42    41    1
    32    86    85    1
    33    41    44    1
    34    41    43    1
    35    85    87    1
    36    85    88    1
    37    46    90    1
    38    46    71   am
    39     2    89    1
    40     2    27   am
    41    45    71    2
    42     1    27    2
    43    71    58    1
    44    27    14    1
    45    18    17    1
    46    20    19    1
    47    70    69    1
    48    17    19   ar
    49    17    16   ar
    50    68    67    1
    51    19    21   ar
    52    69    67   ar
    53    69    60   ar
    54    59    58    1
    55    67    65   ar
    56    15    14    1
    57    58    60    1
    58    58    57    1
    59    14    16    1
    60    14    13    1
    61    60    61   ar
    62    16    25   ar
    63    65    66    1
    64    65    63   ar
    65    21    22    1
    66    21    23   ar
    67    48    47    1
    68    61    63   ar
    69    61    62    1
    70    63    64    1
    71    25    23   ar
    72    25    26    1
    73    57    47   ar
    74    57    55   ar
    75    13     3   ar
    76    13    11   ar
    77    23    24    1
    78    47    49   ar
    79     4     3    1
    80    12    11    1
    81     3     5   ar
    82    11     9   ar
    83    56    55    1
    84    55    53   ar
    85    49    50    1
    86    49    51   ar
    87     5     6    1
    88     5     7   ar
    89     9    10    1
    90     9     7   ar
    91    53    51   ar
    92    53    54    1
    93    51    52    1
    94     7     8    1
