@<TRIPOS>MOLECULE
(<i>E</i>)-2-hydroxy-5-(phenyldiazenyl)cyclohepta-2,4,6-trien-1-one
 27 28 0 0 0
SMALL
GASTEIGER

@<TRIPOS>ATOM
      1 C          -1.2908    1.2717    8.9388 C.ar    1  LIG1        0.1636
      2 C          -0.0925    1.8511    8.5734 C.ar    1  LIG1       -0.0145
      3 H           0.5494    1.9132    9.2710 H       1  LIG1        0.0656
      4 C           0.3255    2.3600    7.3415 C.ar    1  LIG1       -0.0336
      5 H           1.2039    2.7208    7.3218 H       1  LIG1        0.0638
      6 C          -0.3686    2.4062    6.1511 C.ar    1  LIG1        0.0726
      7 C          -1.6596    1.8879    5.9007 C.ar    1  LIG1       -0.0335
      8 H          -1.9569    1.9878    5.0037 H       1  LIG1        0.0638
      9 C          -2.5502    1.2700    6.7256 C.ar    1  LIG1       -0.0094
     10 H          -3.3559    0.9939    6.3036 H       1  LIG1        0.0657
     11 C          -2.4745    0.9676    8.1201 C.ar    1  LIG1        0.2201
     12 C           1.8075    4.0630    3.8480 C.ar    1  LIG1        0.0724
     13 C           1.0742    4.0797    2.6611 C.ar    1  LIG1       -0.0372
     14 H           0.2043    3.6998    2.6325 H       1  LIG1        0.0637
     15 C           1.6214    4.6534    1.5252 C.ar    1  LIG1       -0.0599
     16 H           1.1263    4.6663    0.7146 H       1  LIG1        0.0618
     17 C           2.8932    5.2115    1.5681 C.ar    1  LIG1       -0.0616
     18 H           3.2660    5.6031    0.7881 H       1  LIG1        0.0618
     19 C           3.6166    5.1953    2.7469 C.ar    1  LIG1       -0.0599
     20 H           4.4841    5.5807    2.7741 H       1  LIG1        0.0618
     21 C           3.0808    4.6179    3.8916 C.ar    1  LIG1       -0.0372
     22 H           3.5812    4.6017    4.6988 H       1  LIG1        0.0637
     23 N           0.1914    2.9730    4.9582 N.pl3   1  LIG1       -0.1294
     24 N           1.3196    3.5045    5.0793 N.pl3   1  LIG1       -0.1294
     25 O          -1.4003    0.9109   10.2146 O.3     1  LIG1       -0.5032
     26 H          -2.1583    0.5740   10.3463 H       1  LIG1        0.2923
     27 O          -3.4286    0.4105    8.7089 O.2     1  LIG1       -0.2840
@<TRIPOS>BOND
     1    16    15    1
     2    18    17    1
     3    15    17   ar
     4    15    13   ar
     5    17    19   ar
     6    14    13    1
     7    13    12   ar
     8    19    20    1
     9    19    21   ar
    10    12    21   ar
    11    12    24    1
    12    21    22    1
    13    23    24    1
    14    23     6    1
    15     8     7    1
    16     7     6   ar
    17     7     9   ar
    18     6     4   ar
    19    10     9    1
    20     9    11   ar
    21     5     4    1
    22     4     2   ar
    23    11    27    2
    24    11     1   ar
    25     2     1   ar
    26     2     3    1
    27     1    25    1
    28    25    26    1
