@<TRIPOS>MOLECULE
4'-<i>tert</i>-Butyl-5-chloro-3<i>H</i>-spiro[1,3-benzothiazole-2,1'- cyclohexane]
 41 43 0 0 0
SMALL
GASTEIGER

@<TRIPOS>ATOM
      1 CL         -5.9687    7.2276    1.5353 Cl      1  LIG1       -0.0835
      2 S           0.1365    6.2714    0.8308 S.3     1  LIG1       -0.0977
      3 N          -0.9763    7.9904    2.4760 N.pl3   1  LIG1       -0.3284
      4 C          -1.6126    6.4309    0.8851 C.ar    1  LIG1        0.0308
      5 C          -2.5457    5.7572    0.1399 C.ar    1  LIG1       -0.0451
      6 C          -3.8959    6.0042    0.3200 C.ar    1  LIG1       -0.0422
      7 C          -4.2750    6.9259    1.2665 C.ar    1  LIG1        0.0428
      8 C          -3.3584    7.6194    2.0217 C.ar    1  LIG1       -0.0214
      9 C          -2.0132    7.3750    1.8278 C.ar    1  LIG1        0.0432
     10 C           0.3810    7.5655    2.1661 C.3     1  LIG1        0.0829
     11 C           1.2170    8.7180    1.6369 C.3     1  LIG1       -0.0216
     12 C           2.6580    8.3407    1.3627 C.3     1  LIG1       -0.0470
     13 C           3.3424    7.7676    2.6025 C.3     1  LIG1       -0.0359
     14 C           2.5119    6.5720    3.0855 C.3     1  LIG1       -0.0470
     15 C           1.0654    6.9439    3.3717 C.3     1  LIG1       -0.0216
     16 C           4.8475    7.4478    2.4346 C.3     1  LIG1       -0.0349
     17 C           5.5602    8.6201    1.7588 C.3     1  LIG1       -0.0598
     18 C           5.4767    7.2286    3.8130 C.3     1  LIG1       -0.0598
     19 C           5.0806    6.1947    1.5831 C.3     1  LIG1       -0.0598
     20 H          -1.0988    8.5788    3.0678 H       1  LIG1        0.1474
     21 H          -2.2707    5.1311   -0.4900 H       1  LIG1        0.0630
     22 H          -4.5323    5.5560   -0.1891 H       1  LIG1        0.0632
     23 H          -3.6403    8.2419    2.6516 H       1  LIG1        0.0651
     24 H           0.8158    9.0459    0.8167 H       1  LIG1        0.0294
     25 H           1.1987    9.4411    2.2835 H       1  LIG1        0.0294
     26 H           3.1419    9.1267    1.0651 H       1  LIG1        0.0269
     27 H           2.6859    7.6850    0.6500 H       1  LIG1        0.0269
     28 H           3.2774    8.4530    3.3006 H       1  LIG1        0.0306
     29 H           2.5325    5.8776    2.4088 H       1  LIG1        0.0269
     30 H           2.9125    6.2126    3.8924 H       1  LIG1        0.0269
     31 H           0.5793    6.1489    3.6384 H       1  LIG1        0.0294
     32 H           1.0379    7.5718    4.1106 H       1  LIG1        0.0294
     33 H           6.5091    8.4764    1.7845 H       1  LIG1        0.0235
     34 H           5.3469    9.4339    2.2209 H       1  LIG1        0.0235
     35 H           5.2725    8.6857    0.8447 H       1  LIG1        0.0235
     36 H           6.4201    7.0777    3.7145 H       1  LIG1        0.0235
     37 H           5.0719    6.4651    4.2314 H       1  LIG1        0.0235
     38 H           5.3321    8.0056    4.3590 H       1  LIG1        0.0235
     39 H           4.6126    6.2818    0.7496 H       1  LIG1        0.0235
     40 H           4.7556    5.4230    2.0531 H       1  LIG1        0.0235
     41 H           6.0197    6.0941    1.4120 H       1  LIG1        0.0235
@<TRIPOS>BOND
     1    21     5    1
     2    22     6    1
     3     5     6   ar
     4     5     4   ar
     5     6     7   ar
     6    27    12    1
     7    39    19    1
     8    24    11    1
     9     2     4    1
    10     2    10    1
    11    35    17    1
    12     4     9   ar
    13    26    12    1
    14     7     1    1
    15     7     8   ar
    16    12    11    1
    17    12    13    1
    18    41    19    1
    19    19    40    1
    20    19    16    1
    21    11    10    1
    22    11    25    1
    23    17    33    1
    24    17    34    1
    25    17    16    1
    26     9     8   ar
    27     9     3    1
    28     8    23    1
    29    10     3    1
    30    10    15    1
    31    29    14    1
    32    16    13    1
    33    16    18    1
    34     3    20    1
    35    13    14    1
    36    13    28    1
    37    14    15    1
    38    14    30    1
    39    15    31    1
    40    15    32    1
    41    36    18    1
    42    18    37    1
    43    18    38    1
