@<TRIPOS>MOLECULE
4,5-Dibromo-1,2-dimethyl-1<i>H</i>-imidazol-3-ium bromide
 17 16 0 0 0
SMALL
GASTEIGER

@<TRIPOS>ATOM
      1 BR          1.4552    6.8601    5.6388 Br      1  LIG1       -0.0310
      2 BR         -0.8991    9.7045    6.1893 Br      1  LIG1       -0.0312
      3 N           2.2467    8.0645    8.1057 N.pl3   1  LIG1       -0.3018
      4 N           0.9018    9.7230    8.4095 N.pl3   1  LIG1       -0.3130
      5 H           0.5115   10.4263    8.7642 H       1  LIG1        0.1487
      6 C           1.9461    9.0794    8.9240 C.3     1  LIG1        0.1353
      7 C           1.3643    8.0768    7.0369 C.2     1  LIG1        0.1031
      8 C           0.5275    9.1098    7.2261 C.2     1  LIG1        0.1010
      9 C           2.6400    9.4485   10.1690 C.3     1  LIG1       -0.0232
     10 H           2.7392    8.6709   10.7215 H       1  LIG1        0.0268
     11 H           2.1267   10.1112   10.6373 H       1  LIG1        0.0268
     12 H           3.5063    9.8040    9.9587 H       1  LIG1        0.0268
     13 C           3.2957    7.0821    8.3352 C.3     1  LIG1        0.0033
     14 H           3.8251    7.3488    9.0895 H       1  LIG1        0.0428
     15 H           3.8549    7.0236    7.5570 H       1  LIG1        0.0428
     16 H           2.8992    6.2247    8.5090 H       1  LIG1        0.0428
     17 BR          0.4487    6.5351   10.9179 Br      2  LIG2        0.0000
@<TRIPOS>BOND
     1     1     7    1
     2     2     8    1
     3     7     8    2
     4     7     3    1
     5     8     4    1
     6    15    13    1
     7     3    13    1
     8     3     6    1
     9    13    16    1
    10    13    14    1
    11     4     5    1
    12     4     6    1
    13     6     9    1
    14    12     9    1
    15     9    11    1
    16     9    10    1
