@<TRIPOS>MOLECULE
(<i>Z</i>)-3-<i>o</i>-Tolyl-3-(<i>p</i>-tolyloxy)acrylonitrile
 34 35 0 0 0
SMALL
GASTEIGER

@<TRIPOS>ATOM
      1 N           6.7759    6.2566   -1.1154 N.1     1  LIG1       -0.1914
      2 O           8.7565    4.3501    1.0094 O.3     1  LIG1       -0.4547
      3 C           6.9023    6.0542    0.0043 C.1     1  LIG1        0.0950
      4 C           7.0178    5.7925    1.3975 C.2     1  LIG1        0.0582
      5 H           6.4708    6.2586    1.9872 H       1  LIG1        0.0770
      6 C           7.8777    4.9079    1.8818 C.2     1  LIG1        0.1459
      7 C           7.9548    4.5466    3.3221 C.ar    1  LIG1        0.0209
      8 C           9.1563    4.6038    4.0486 C.ar    1  LIG1       -0.0398
      9 C           9.0981    4.3313    5.4062 C.ar    1  LIG1       -0.0582
     10 H           9.8810    4.3767    5.9062 H       1  LIG1        0.0620
     11 C           7.9261    3.9976    6.0387 C.ar    1  LIG1       -0.0615
     12 H           7.9261    3.8140    6.9504 H       1  LIG1        0.0618
     13 C           6.7631    3.9354    5.3321 C.ar    1  LIG1       -0.0611
     14 H           5.9693    3.7014    5.7566 H       1  LIG1        0.0618
     15 C           6.7690    4.2237    3.9773 C.ar    1  LIG1       -0.0508
     16 H           5.9713    4.2020    3.5001 H       1  LIG1        0.0625
     17 C          10.4635    4.9938    3.4232 C.3     1  LIG1       -0.0390
     18 H          10.8811    4.2168    3.0428 H       1  LIG1        0.0278
     19 H          11.0381    5.3720    4.0913 H       1  LIG1        0.0278
     20 H          10.3065    5.6415    2.7323 H       1  LIG1        0.0278
     21 C           8.9914    2.9679    1.0670 C.ar    1  LIG1        0.1285
     22 C           7.9696    2.0674    1.1995 C.ar    1  LIG1       -0.0191
     23 H           7.0938    2.3587    1.3134 H       1  LIG1        0.0654
     24 C           8.2598    0.7247    1.1610 C.ar    1  LIG1       -0.0554
     25 H           7.5648    0.1135    1.2508 H       1  LIG1        0.0621
     26 C           9.5453    0.2508    0.9958 C.ar    1  LIG1       -0.0502
     27 C          10.5464    1.1966    0.8619 C.ar    1  LIG1       -0.0554
     28 H          11.4242    0.9113    0.7507 H       1  LIG1        0.0621
     29 C          10.2809    2.5453    0.8889 C.ar    1  LIG1       -0.0191
     30 H          10.9690    3.1624    0.7892 H       1  LIG1        0.0654
     31 C           9.8593   -1.2154    0.9601 C.3     1  LIG1       -0.0397
     32 H           9.5048   -1.5985    0.1539 H       1  LIG1        0.0278
     33 H           9.4614   -1.6458    1.7194 H       1  LIG1        0.0278
     34 H          10.8110   -1.3398    0.9815 H       1  LIG1        0.0278
@<TRIPOS>BOND
     1     1     3    3
     2     3     4    1
     3    32    31    1
     4    28    27    1
     5    30    29    1
     6    27    29   ar
     7    27    26   ar
     8    29    21   ar
     9    31    34    1
    10    31    26    1
    11    31    33    1
    12    26    24   ar
    13     2    21    1
    14     2     6    1
    15    21    22   ar
    16    24    22   ar
    17    24    25    1
    18    22    23    1
    19     4     6    2
    20     4     5    1
    21     6     7    1
    22    20    17    1
    23    18    17    1
    24     7    15   ar
    25     7     8   ar
    26    17     8    1
    27    17    19    1
    28    16    15    1
    29    15    13   ar
    30     8     9   ar
    31    13    14    1
    32    13    11   ar
    33     9    10    1
    34     9    11   ar
    35    11    12    1
