@<TRIPOS>MOLECULE
3-Phenyl-<i>N</i>,<i>N</i>,<i>N</i>',<i>N</i>'-tetramethyl-1-ethyne- 1-carboximidamidium bromide
 33 32 0 0 0
SMALL
GASTEIGER

@<TRIPOS>ATOM
      1 BR          3.8440    5.5723    1.4809 Br      1  LIG1        0.0000
      2 C           2.6935    4.9280    6.3576 C.3     2  LIG2        0.1824
      3 N           3.5185    5.9706    6.3101 N.3     2  LIG2       -0.2771
      4 N           2.6973    4.0471    7.3468 N.3     2  LIG2       -0.2771
      5 C           4.0687    6.6056    7.5103 C.3     2  LIG2       -0.0104
      6 H           3.5810    6.2900    8.2998 H       2  LIG2        0.0391
      7 H           3.9773    7.5780    7.4366 H       2  LIG2        0.0391
      8 H           5.0172    6.3731    7.5973 H       2  LIG2        0.0391
      9 C           3.7887    6.6751    5.0585 C.3     2  LIG2       -0.0104
     10 H           3.3302    6.2197    4.3215 H       2  LIG2        0.0391
     11 H           4.7536    6.6810    4.8890 H       2  LIG2        0.0391
     12 H           3.4634    7.5972    5.1257 H       2  LIG2        0.0391
     13 C           1.5616    3.1580    7.5954 C.3     2  LIG2       -0.0104
     14 H           0.7858    3.4678    7.0830 H       2  LIG2        0.0391
     15 H           1.3451    3.1642    8.5508 H       2  LIG2        0.0391
     16 H           1.7938    2.2469    7.3188 H       2  LIG2        0.0391
     17 C           3.8636    3.7648    8.1828 C.3     2  LIG2       -0.0104
     18 H           4.6634    4.1550    7.7713 H       2  LIG2        0.0391
     19 H           3.9790    2.7956    8.2656 H       2  LIG2        0.0391
     20 H           3.7306    4.1550    9.0717 H       2  LIG2        0.0391
     21 C           1.7509    4.7416    5.2991 C.1     2  LIG2       -0.0540
     22 C           0.9160    4.5493    4.4637 C.1     2  LIG2       -0.0630
     23 C          -0.0959    4.2908    3.4909 C.ar    2  LIG2        0.0250
     24 C          -1.0650    3.3196    3.7568 C.ar    2  LIG2       -0.0463
     25 H          -1.0323    2.8243    4.5667 H       2  LIG2        0.0630
     26 C          -2.0723    3.0819    2.8364 C.ar    2  LIG2       -0.0606
     27 H          -2.7330    2.4227    3.0144 H       2  LIG2        0.0618
     28 C          -2.1144    3.8054    1.6578 C.ar    2  LIG2       -0.0617
     29 H          -2.8096    3.6436    1.0305 H       2  LIG2        0.0618
     30 C          -1.1508    4.7649    1.3852 C.ar    2  LIG2       -0.0606
     31 H          -1.1887    5.2577    0.5732 H       2  LIG2        0.0618
     32 C          -0.1330    5.0068    2.2944 C.ar    2  LIG2       -0.0463
     33 H           0.5344    5.6550    2.1037 H       2  LIG2        0.0630
@<TRIPOS>BOND
     1    31    30    1
     2    29    28    1
     3    30    28   ar
     4    30    32   ar
     5    28    26   ar
     6    33    32    1
     7    32    23   ar
     8    26    27    1
     9    26    24   ar
    10    23    24   ar
    11    23    22    1
    12    24    25    1
    13    10     9    1
    14    22    21    3
    15    11     9    1
    16     9    12    1
    17     9     3    1
    18    21     2    1
    19     3     2    1
    20     3     5    1
    21     2     4    1
    22    14    13    1
    23    16    13    1
    24     4    13    1
    25     4    17    1
    26     7     5    1
    27     5     8    1
    28     5     6    1
    29    13    15    1
    30    18    17    1
    31    17    19    1
    32    17    20    1
