@<TRIPOS>MOLECULE
2-(1,2,3,4-Tetrahydronaphthalen-1-ylidene)hydrazinecarbothioamide
 28 29 0 0 0
SMALL
GASTEIGER

@<TRIPOS>ATOM
      1 C           2.3030    4.3799   10.1065 C.2     1  LIG1        0.0667
      2 C           0.8634    4.6410   10.4240 C.3     1  LIG1       -0.0080
      3 H           0.8068    5.2423   11.1840 H       1  LIG1        0.0329
      4 H           0.4338    3.8071   10.6707 H       1  LIG1        0.0329
      5 C           0.1328    5.2512    9.2471 C.3     1  LIG1       -0.0436
      6 H           0.1057    4.6136    8.5170 H       1  LIG1        0.0272
      7 H          -0.7800    5.4548    9.5027 H       1  LIG1        0.0272
      8 C           0.8200    6.5080    8.7930 C.3     1  LIG1       -0.0267
      9 H           0.3841    6.8360    7.9908 H       1  LIG1        0.0313
     10 H           0.7275    7.1863    9.4796 H       1  LIG1        0.0313
     11 C           2.2734    6.2921    8.5093 C.ar    1  LIG1       -0.0384
     12 C           2.9689    7.1455    7.6432 C.ar    1  LIG1       -0.0580
     13 H           2.5186    7.8528    7.2413 H       1  LIG1        0.0620
     14 C           4.2979    6.9576    7.3789 C.ar    1  LIG1       -0.0615
     15 H           4.7445    7.5461    6.8126 H       1  LIG1        0.0618
     16 C           4.9682    5.9156    7.9377 C.ar    1  LIG1       -0.0611
     17 H           5.8652    5.7772    7.7341 H       1  LIG1        0.0618
     18 C           4.3239    5.0660    8.8045 C.ar    1  LIG1       -0.0526
     19 H           4.7922    4.3621    9.1921 H       1  LIG1        0.0624
     20 C           2.9696    5.2473    9.1125 C.ar    1  LIG1        0.0009
     21 N           3.0434    3.4858   10.6519 N.2     1  LIG1       -0.1850
     22 N           2.5167    2.6803   11.6297 N.am    1  LIG1       -0.2183
     23 H           1.6769    2.6875   11.9259 H       1  LIG1        0.1762
     24 C           3.3121    1.7247   12.1615 C.2     1  LIG1        0.1473
     25 N           4.5222    1.6098   11.6494 N.am    1  LIG1       -0.3394
     26 H           5.0824    0.9656   11.9002 H       1  LIG1        0.1440
     27 H           4.7359    2.2731   11.0968 H       1  LIG1        0.1440
     28 S           2.7501    0.7600   13.4193 S.2     1  LIG1       -0.0174
@<TRIPOS>BOND
     1    15    14    1
     2    13    12    1
     3    14    12   ar
     4    14    16   ar
     5    12    11   ar
     6    17    16    1
     7    16    18   ar
     8     9     8    1
     9    11     8    1
    10    11    20   ar
    11     6     5    1
    12     8     5    1
    13     8    10    1
    14    18    20   ar
    15    18    19    1
    16    20     1    1
    17     5     7    1
    18     5     2    1
    19     1     2    1
    20     1    21    2
    21     2     4    1
    22     2     3    1
    23    21    22    1
    24    27    25    1
    25    22    23    1
    26    22    24    1
    27    25    26    1
    28    25    24    1
    29    24    28    2
