@<TRIPOS>MOLECULE
(2<i>E</i>)-3-(4-Cyanophenyl)-1-(4,4''-difluoro-5'-methoxy-1,1':3',1''- terphenyl-4'-yl)prop-2-en-1-one
 53 56 0 0 0
SMALL
GASTEIGER

@<TRIPOS>ATOM
      1 F          -5.3409   10.1161   14.0557 F       1  LIG1       -0.2055
      2 F           0.3229    2.4325    6.7067 F       1  LIG1       -0.2055
      3 O          -1.5800   12.1222   10.2473 O.2     1  LIG1       -0.2871
      4 O           1.5497   10.8871    8.8183 O.3     1  LIG1       -0.4944
      5 N           5.8127   16.9524   14.2833 N.1     1  LIG1       -0.1909
      6 C          -4.3253    9.8403   13.1957 C.ar    1  LIG1        0.1234
      7 C          -3.0899   10.4083   13.4313 C.ar    1  LIG1       -0.0259
      8 H          -2.9495   10.9666   14.1871 H       1  LIG1        0.0646
      9 C          -2.0628   10.1502   12.5486 C.ar    1  LIG1       -0.0513
     10 H          -1.2056   10.5279   12.7072 H       1  LIG1        0.0624
     11 C          -2.2588    9.3440   11.4265 C.ar    1  LIG1       -0.0169
     12 C          -3.5163    8.7567   11.2461 C.ar    1  LIG1       -0.0513
     13 H          -3.6618    8.1839   10.5032 H       1  LIG1        0.0624
     14 C          -4.5551    8.9981   12.1333 C.ar    1  LIG1       -0.0259
     15 H          -5.4044    8.5901   12.0107 H       1  LIG1        0.0646
     16 C           0.0852    3.7616    8.6373 C.ar    1  LIG1       -0.0259
     17 H           0.0023    2.9807    9.1727 H       1  LIG1        0.0646
     18 C           0.0244    5.0224    9.2073 C.ar    1  LIG1       -0.0513
     19 H          -0.1096    5.1059   10.1449 H       1  LIG1        0.0624
     20 C           0.1558    6.1745    8.4260 C.ar    1  LIG1       -0.0176
     21 C           0.3545    6.0280    7.0537 C.ar    1  LIG1       -0.0513
     22 H           0.4588    6.8001    6.5103 H       1  LIG1        0.0624
     23 C           0.4018    4.7701    6.4684 C.ar    1  LIG1       -0.0259
     24 H           0.5235    4.6724    5.5309 H       1  LIG1        0.0646
     25 C           0.2685    3.6689    7.2802 C.ar    1  LIG1        0.1234
     26 C          -0.9648    7.8113    9.9419 C.ar    1  LIG1       -0.0454
     27 H          -1.5341    7.1080   10.2319 H       1  LIG1        0.0630
     28 C          -1.1622    9.1000   10.4467 C.ar    1  LIG1       -0.0030
     29 C          -0.2995   10.1295   10.0308 C.ar    1  LIG1        0.0709
     30 C           0.7551    9.8270    9.1558 C.ar    1  LIG1        0.1320
     31 C           0.9162    8.5498    8.6447 C.ar    1  LIG1       -0.0115
     32 H           1.6207    8.3675    8.0338 H       1  LIG1        0.0660
     33 C           0.0429    7.5307    9.0263 C.ar    1  LIG1       -0.0138
     34 C          -0.5066   11.5704   10.4295 C.2     1  LIG1        0.1902
     35 C           0.6430   12.2583   11.0578 C.2     1  LIG1       -0.0137
     36 H           1.4180   11.7491   11.2650 H       1  LIG1        0.0656
     37 C           0.6410   13.5553   11.3448 C.2     1  LIG1       -0.0510
     38 H          -0.1438   14.0467   11.1315 H       1  LIG1        0.0625
     39 C           1.7446   14.2922   11.9623 C.ar    1  LIG1       -0.0248
     40 C           1.5911   15.6329   12.3047 C.ar    1  LIG1       -0.0534
     41 H           0.7676   16.0688   12.1210 H       1  LIG1        0.0624
     42 C           2.6187   16.3433   12.9074 C.ar    1  LIG1       -0.0438
     43 H           2.4988   17.2576   13.1367 H       1  LIG1        0.0631
     44 C           3.8285   15.7033   13.1758 C.ar    1  LIG1        0.0518
     45 C           4.0028   14.3717   12.8291 C.ar    1  LIG1       -0.0438
     46 H           4.8255   13.9354   13.0162 H       1  LIG1        0.0631
     47 C           2.9840   13.6823   12.2139 C.ar    1  LIG1       -0.0534
     48 H           3.1210   12.7790   11.9542 H       1  LIG1        0.0624
     49 C           4.9182   16.4156   13.7997 C.1     1  LIG1        0.0992
     50 C           2.7482   10.6235    8.0860 C.3     1  LIG1        0.0788
     51 H           3.2641   11.4512    7.9946 H       1  LIG1        0.0660
     52 H           2.5195   10.2814    7.1966 H       1  LIG1        0.0660
     53 H           3.2838    9.9566    8.5648 H       1  LIG1        0.0660
@<TRIPOS>BOND
     1    24    23    1
     2    23    21   ar
     3    23    25   ar
     4    22    21    1
     5     2    25    1
     6    21    20   ar
     7    52    50    1
     8    25    16   ar
     9    51    50    1
    10    32    31    1
    11    50    53    1
    12    50     4    1
    13    20    33    1
    14    20    18   ar
    15    16    17    1
    16    16    18   ar
    17    31    33   ar
    18    31    30   ar
    19     4    30    1
    20    33    26   ar
    21    30    29   ar
    22    18    19    1
    23    26    27    1
    24    26    28   ar
    25    29    34    1
    26    29    28   ar
    27     3    34    2
    28    34    35    1
    29    28    11    1
    30    13    12    1
    31    35    36    1
    32    35    37    2
    33    38    37    1
    34    12    11   ar
    35    12    14   ar
    36    37    39    1
    37    11     9   ar
    38    48    47    1
    39    39    47   ar
    40    39    40   ar
    41    15    14    1
    42    41    40    1
    43    14     6   ar
    44    47    45   ar
    45    40    42   ar
    46     9    10    1
    47     9     7   ar
    48    45    46    1
    49    45    44   ar
    50    42    43    1
    51    42    44   ar
    52    44    49    1
    53     6     7   ar
    54     6     1    1
    55     7     8    1
    56    49     5    3
