@<TRIPOS>MOLECULE
4-(3-Phenyl-3,3a,4,5-tetrahydro-2<i>H</i>-benzo[<i>g</i>]indazol- 2-yl)benzenesulfonamide ethanol monosolvate
 59 62 0 0 0
SMALL
GASTEIGER

@<TRIPOS>ATOM
      1 S           5.0937    7.7270    9.4548 S.O2    1  LIG1        0.0559
      2 O           5.8076    6.7898   10.2732 O.2     1  LIG1       -0.1533
      3 O           5.0621    7.5344    8.0266 O.2     1  LIG1       -0.1533
      4 O           7.9774    4.9896   10.8352 O.3     1  LIG1       -0.3953
      5 N          -1.5201    8.3959   10.5487 N.3     1  LIG1       -0.1276
      6 N          -0.5245    7.7966   11.3173 N.pl3   1  LIG1       -0.2412
      7 N           5.7642    9.1725    9.7050 N.3     1  LIG1       -0.2035
      8 C          -2.6504    8.0839   11.0748 C.3     1  LIG1        0.1124
      9 C          -3.9472    8.5501   10.5941 C.ar    1  LIG1       -0.0184
     10 C          -4.0728    9.3074    9.4280 C.ar    1  LIG1       -0.0564
     11 H          -3.2952    9.5479    8.9375 H       1  LIG1        0.0621
     12 C          -5.3087    9.7085    8.9839 C.ar    1  LIG1       -0.0614
     13 H          -5.3869   10.2271    8.1921 H       1  LIG1        0.0618
     14 C          -6.4504    9.3478    9.7032 C.ar    1  LIG1       -0.0615
     15 H          -7.3092    9.6121    9.3950 H       1  LIG1        0.0618
     16 C          -6.3330    8.6098   10.8582 C.ar    1  LIG1       -0.0583
     17 H          -7.1180    8.3675   11.3357 H       1  LIG1        0.0620
     18 C          -5.0857    8.2096   11.3450 C.ar    1  LIG1       -0.0422
     19 C          -4.9736    7.4276   12.6339 C.3     1  LIG1       -0.0270
     20 H          -5.1997    6.4803   12.4530 H       1  LIG1        0.0313
     21 H          -5.6401    7.7764   13.2779 H       1  LIG1        0.0313
     22 C          -3.5951    7.4881   13.2754 C.3     1  LIG1       -0.0420
     23 H          -3.4223    8.4024   13.6156 H       1  LIG1        0.0272
     24 H          -3.5515    6.8594   14.0389 H       1  LIG1        0.0272
     25 C          -2.5521    7.1173   12.2414 C.3     1  LIG1        0.0112
     26 H          -2.7537    6.1976   11.9052 H       1  LIG1        0.0346
     27 C          -1.0433    7.1953   12.5696 C.3     1  LIG1        0.0709
     28 H          -0.6815    6.2674   12.6600 H       1  LIG1        0.0569
     29 C          -0.6462    8.0022   13.7930 C.ar    1  LIG1       -0.0253
     30 C          -0.3979    9.3671   13.7240 C.ar    1  LIG1       -0.0567
     31 H          -0.4755    9.8159   12.8903 H       1  LIG1        0.0621
     32 C          -0.0453   10.0748   14.8403 C.ar    1  LIG1       -0.0614
     33 H           0.1348   11.0055   14.7718 H       1  LIG1        0.0618
     34 C           0.0533    9.4451   16.0682 C.ar    1  LIG1       -0.0617
     35 H           0.2983    9.9389   16.8416 H       1  LIG1        0.0618
     36 C          -0.2096    8.0829   16.1588 C.ar    1  LIG1       -0.0614
     37 H          -0.1636    7.6460   17.0004 H       1  LIG1        0.0618
     38 C          -0.5391    7.3642   15.0264 C.ar    1  LIG1       -0.0567
     39 H          -0.6927    6.4289   15.0893 H       1  LIG1        0.0621
     40 C           0.7829    7.8213   10.9072 C.ar    1  LIG1        0.0468
     41 C           1.1488    8.4409    9.6959 C.ar    1  LIG1       -0.0375
     42 H           0.4912    8.8843    9.1740 H       1  LIG1        0.0637
     43 C           2.4542    8.4060    9.2662 C.ar    1  LIG1       -0.0336
     44 H           2.6924    8.8209    8.4457 H       1  LIG1        0.0638
     45 C           3.4321    7.7617   10.0297 C.ar    1  LIG1        0.1051
     46 C           3.0897    7.1724   11.2345 C.ar    1  LIG1       -0.0336
     47 H           3.7550    6.7437   11.7590 H       1  LIG1        0.0638
     48 C           1.7762    7.2082   11.6755 C.ar    1  LIG1       -0.0375
     49 H           1.5488    6.8107   12.5075 H       1  LIG1        0.0637
     50 C           7.8693    3.7643    9.9895 C.3     1  LIG1        0.0414
     51 H           8.7628    3.3430    9.9179 H       1  LIG1        0.0554
     52 H           7.2660    3.1181   10.4362 H       1  LIG1        0.0554
     53 C           7.3647    4.0332    8.6496 C.3     1  LIG1       -0.0418
     54 H           7.3134    3.1952    8.1454 H       1  LIG1        0.0252
     55 H           7.9676    4.6546    8.1921 H       1  LIG1        0.0252
     56 H           6.4708    4.4325    8.7103 H       1  LIG1        0.0252
     57 H           5.9042    9.3074   10.5560 H       1  LIG1        0.1442
     58 H           5.3731    9.7847    9.2114 H       1  LIG1        0.1442
     59 H           7.3739    5.5532   10.6914 H       1  LIG1        0.2094
@<TRIPOS>BOND
     1     3     1    2
     2    54    53    1
     3    13    12    1
     4    55    53    1
     5    44    43    1
     6    53    56    1
     7    53    50    1
     8    11    10    1
     9    12    10   ar
    10    12    14   ar
    11    42    41    1
    12    58     7    1
    13    43    41   ar
    14    43    45   ar
    15    15    14    1
    16    10     9   ar
    17     1     7    1
    18     1    45    1
    19     1     2    2
    20    41    40   ar
    21    14    16   ar
    22     7    57    1
    23    51    50    1
    24    50    52    1
    25    50     4    1
    26    45    46   ar
    27     5     8    1
    28     5     6    1
    29     9     8    1
    30     9    18   ar
    31    59     4    1
    32    16    17    1
    33    16    18   ar
    34    40     6    1
    35    40    48   ar
    36     8    25    1
    37    46    48   ar
    38    46    47    1
    39     6    27    1
    40    18    19    1
    41    48    49    1
    42    26    25    1
    43    25    27    1
    44    25    22    1
    45    20    19    1
    46    27    28    1
    47    27    29    1
    48    19    22    1
    49    19    21    1
    50    31    30    1
    51    22    23    1
    52    22    24    1
    53    30    29   ar
    54    30    32   ar
    55    29    38   ar
    56    33    32    1
    57    32    34   ar
    58    38    39    1
    59    38    36   ar
    60    34    36   ar
    61    34    35    1
    62    36    37    1
