@<TRIPOS>MOLECULE
<i>N</i>-[(<i>E</i>)-4-Fluorobenzylidene]-3,4-dimethylaniline
 31 32 0 0 0
SMALL
GASTEIGER

@<TRIPOS>ATOM
      1 N           3.9960    3.7557    9.5532 N.2     1  LIG1       -0.2550
      2 F           2.6493    4.2143   15.7589 F       1  LIG1       -0.2055
      3 C           3.9449    3.0917    7.2251 C.ar    1  LIG1       -0.0332
      4 H           3.5458    2.2953    7.4930 H       1  LIG1        0.0641
      5 C           4.2688    4.0446    8.1833 C.ar    1  LIG1        0.0641
      6 C           3.2622    4.5190   11.7155 C.ar    1  LIG1       -0.0068
      7 C           4.8236    4.4842    5.4717 C.ar    1  LIG1       -0.0474
      8 C           3.4908    3.2829   13.7738 C.ar    1  LIG1       -0.0258
      9 H           3.7790    2.5334   14.2426 H       1  LIG1        0.0646
     10 C           3.5001    4.6674   10.2735 C.2     1  LIG1        0.0354
     11 H           3.2738    5.4740    9.8706 H       1  LIG1        0.0836
     12 C           4.2029    3.3006    5.8730 C.ar    1  LIG1       -0.0455
     13 C           2.6439    5.5425   12.4171 C.ar    1  LIG1       -0.0504
     14 H           2.3727    6.3087   11.9636 H       1  LIG1        0.0625
     15 C           4.8848    5.2190    7.7791 C.ar    1  LIG1       -0.0361
     16 H           5.1141    5.8664    8.4066 H       1  LIG1        0.0639
     17 C           2.4215    5.4445   13.7822 C.ar    1  LIG1       -0.0258
     18 H           1.9922    6.1249   14.2497 H       1  LIG1        0.0646
     19 C           5.1459    4.7528    4.0230 C.3     1  LIG1       -0.0395
     20 H           5.5705    5.6112    3.9431 H       1  LIG1        0.0278
     21 H           4.3362    4.7482    3.5085 H       1  LIG1        0.0278
     22 H           5.7379    4.0723    3.6957 H       1  LIG1        0.0278
     23 C           2.8538    4.3184   14.4170 C.ar    1  LIG1        0.1234
     24 C           3.6892    3.3886   12.4073 C.ar    1  LIG1       -0.0504
     25 H           4.1115    2.6990   11.9479 H       1  LIG1        0.0625
     26 C           5.1575    5.4217    6.4386 C.ar    1  LIG1       -0.0566
     27 H           5.5767    6.2100    6.1777 H       1  LIG1        0.0621
     28 C           3.8162    2.2402    4.8658 C.3     1  LIG1       -0.0394
     29 H           3.4032    1.5026    5.3199 H       1  LIG1        0.0278
     30 H           4.6020    1.9335    4.4063 H       1  LIG1        0.0278
     31 H           3.1994    2.6117    4.2305 H       1  LIG1        0.0278
@<TRIPOS>BOND
     1    21    19    1
     2    22    19    1
     3    20    19    1
     4    19     7    1
     5    31    28    1
     6    30    28    1
     7    28    29    1
     8    28    12    1
     9     7    12   ar
    10     7    26   ar
    11    12     3   ar
    12    27    26    1
    13    26    15   ar
    14     3     4    1
    15     3     5   ar
    16    15     5   ar
    17    15    16    1
    18     5     1    1
    19     1    10    2
    20    11    10    1
    21    10     6    1
    22     6    24   ar
    23     6    13   ar
    24    25    24    1
    25    14    13    1
    26    24     8   ar
    27    13    17   ar
    28     8     9    1
    29     8    23   ar
    30    17    18    1
    31    17    23   ar
    32    23     2    1
