@<TRIPOS>MOLECULE
(<i>R</i>*)-Methyl 2-(2,6-dimethoxy-3,5-dinitrobenzamido)propanoate
 40 40 0 0 0
SMALL
GASTEIGER

@<TRIPOS>ATOM
      1 C           3.5857   17.5301   11.7299 C.ar    1  LIG1        0.0061
      2 H           4.1165   17.5763   12.4919 H       1  LIG1        0.0665
      3 C           3.1117   18.6858   11.1643 C.ar    1  LIG1        0.1707
      4 C           2.3401   18.6501    9.9882 C.ar    1  LIG1        0.1659
      5 C           2.0594   17.4098    9.4297 C.ar    1  LIG1        0.1242
      6 C           2.5109   16.2136   10.0059 C.ar    1  LIG1        0.1659
      7 C           3.2844   16.3015   11.1828 C.ar    1  LIG1        0.1707
      8 C           2.9070   20.6046    8.7732 C.3     1  LIG1        0.0789
      9 H           2.4870   21.3372    8.3173 H       1  LIG1        0.0660
     10 H           3.4543   20.1139    8.1560 H       1  LIG1        0.0660
     11 H           3.4543   20.9434    9.4865 H       1  LIG1        0.0660
     12 C           0.4205   20.5829    5.3746 C.3     1  LIG1        0.0817
     13 H           0.8068   21.3600    5.7859 H       1  LIG1        0.0661
     14 H          -0.4951   20.4972    5.6485 H       1  LIG1        0.0661
     15 H           0.4618   20.6739    4.4196 H       1  LIG1        0.0661
     16 C           3.2830   14.2453    8.9011 C.3     1  LIG1        0.0789
     17 H           2.9319   13.4670    8.4607 H       1  LIG1        0.0660
     18 H           3.8147   13.9745    9.6538 H       1  LIG1        0.0660
     19 H           3.8269   14.7428    8.2855 H       1  LIG1        0.0660
     20 C           1.6187   17.0787    5.6815 C.3     1  LIG1        0.1178
     21 H           2.3959   17.1002    5.0848 H       1  LIG1        0.0612
     22 C           0.7387   18.2614    5.2822 C.2     1  LIG1        0.3271
     23 C           1.3418   17.3337    8.0983 C.2     1  LIG1        0.2520
     24 C           0.9495   15.7421    5.4612 C.3     1  LIG1       -0.0362
     25 H           1.5464   15.0369    5.7261 H       1  LIG1        0.0253
     26 H           0.7303   15.6424    4.5311 H       1  LIG1        0.0253
     27 H           0.1474   15.6949    5.9871 H       1  LIG1        0.0253
     28 N           3.3646   19.9335   11.9088 N.pl3   1  LIG1        0.0601
     29 N           3.7359   15.1214   11.9155 N.pl3   1  LIG1        0.0601
     30 N           2.1401   17.2408    7.0438 N.am    1  LIG1       -0.2983
     31 H           2.9910   17.2770    7.1622 H       1  LIG1        0.1498
     32 O          -0.2093   18.1571    4.5437 O.2     1  LIG1       -0.2488
     33 O           0.1178   17.3766    8.0281 O.2     1  LIG1       -0.2699
     34 O           1.1503   19.4168    5.7759 O.3     1  LIG1       -0.4666
     35 O           1.8989   19.7359    9.3138 O.3     1  LIG1       -0.4919
     36 O           2.1965   15.0701    9.3546 O.3     1  LIG1       -0.4919
     37 O           4.2906   19.9420   12.6794 O.2     1  LIG1       -0.1260
     38 O           2.6447   20.8736   11.7319 O.2     1  LIG1       -0.1260
     39 O           4.7782   15.2294   12.5501 O.2     1  LIG1       -0.1260
     40 O           3.0591   14.1049   11.8827 O.2     1  LIG1       -0.1260
@<TRIPOS>BOND
     1    15    12    1
     2    26    24    1
     3    32    22    2
     4    21    20    1
     5    22    20    1
     6    22    34    1
     7    12    14    1
     8    12    34    1
     9    12    13    1
    10    24    20    1
    11    24    25    1
    12    24    27    1
    13    20    30    1
    14    30    31    1
    15    30    23   am
    16    33    23    2
    17    23     5    1
    18    10     8    1
    19    19    16    1
    20     9     8    1
    21    17    16    1
    22     8    35    1
    23     8    11    1
    24    16    36    1
    25    16    18    1
    26    35     4    1
    27    36     6    1
    28     5     4   ar
    29     5     6   ar
    30     4     3   ar
    31     6     7   ar
    32     3     1   ar
    33     3    28    1
    34     7     1   ar
    35     7    29    1
    36     1     2    1
    37    38    28    2
    38    40    29    2
    39    28    37    2
    40    29    39    2
