@<TRIPOS>MOLECULE
(<i>E</i>)-2-[2-(3-Fluorophenyl)ethenyl]quinolin-8-yl acetate
 37 39 0 0 0
SMALL
GASTEIGER

@<TRIPOS>ATOM
      1 O           3.9729    1.6578   11.7300 O.3     1  LIG1       -0.4238
      2 N           2.7623   -0.5059   10.5058 N.ar    1  LIG1       -0.2436
      3 F          -4.0793   -5.0378    8.6829 F       1  LIG1       -0.2055
      4 O           3.9718    0.1774   13.4303 O.2     1  LIG1       -0.2507
      5 C           2.1888   -1.5140    9.8669 C.ar    1  LIG1        0.0647
      6 C           4.0907   -0.2801   10.2784 C.ar    1  LIG1        0.1138
      7 C          -2.1048   -3.8854    9.2248 C.ar    1  LIG1       -0.0193
      8 H          -1.6050   -4.5171    8.7217 H       1  LIG1        0.0652
      9 C           4.8707   -1.0602    9.3807 C.ar    1  LIG1        0.0040
     10 C          -1.4557   -2.8216    9.8544 C.ar    1  LIG1       -0.0223
     11 C          -4.2477   -3.1495   10.0700 C.ar    1  LIG1       -0.0264
     12 H          -5.1876   -3.2643   10.1382 H       1  LIG1        0.0646
     13 C           4.7350    0.8028   10.9319 C.ar    1  LIG1        0.1574
     14 C           0.7559   -1.6882   10.1286 C.2     1  LIG1       -0.0357
     15 H           0.3324   -1.0360   10.6751 H       1  LIG1        0.0639
     16 C           4.2164   -2.1220    8.7143 C.ar    1  LIG1       -0.0504
     17 H           4.6939   -2.6689    8.1027 H       1  LIG1        0.0625
     18 C           6.0426    1.1091   10.7001 C.ar    1  LIG1       -0.0171
     19 H           6.4409    1.8524   11.1378 H       1  LIG1        0.0655
     20 C           6.2346   -0.7422    9.1729 C.ar    1  LIG1       -0.0523
     21 H           6.7586   -1.2739    8.5843 H       1  LIG1        0.0624
     22 C           6.8030    0.3248    9.8127 C.ar    1  LIG1       -0.0576
     23 H           7.7154    0.5375    9.6581 H       1  LIG1        0.0619
     24 C           2.8987   -2.3552    8.9543 C.ar    1  LIG1       -0.0357
     25 H           2.4520   -3.0716    8.5180 H       1  LIG1        0.0639
     26 C          -3.6002   -2.0946   10.7118 C.ar    1  LIG1       -0.0585
     27 H          -4.1068   -1.4792   11.2278 H       1  LIG1        0.0619
     28 C          -3.4763   -4.0160    9.3369 C.ar    1  LIG1        0.1240
     29 C          -2.2265   -1.9293   10.6080 C.ar    1  LIG1       -0.0544
     30 H          -1.8055   -1.2039   11.0525 H       1  LIG1        0.0623
     31 C          -0.0057   -2.6805    9.6667 C.2     1  LIG1       -0.0525
     32 H           0.4308   -3.3617    9.1686 H       1  LIG1        0.0624
     33 C           3.5939    1.2097   12.9526 C.2     1  LIG1        0.3093
     34 C           2.6692    2.2025   13.5917 C.3     1  LIG1        0.0336
     35 H           2.3992    1.8761   14.4746 H       1  LIG1        0.0342
     36 H           1.8745    2.3178   13.0297 H       1  LIG1        0.0342
     37 H           3.1288    3.0627   13.6882 H       1  LIG1        0.0342
@<TRIPOS>BOND
     1    17    16    1
     2    25    24    1
     3    21    20    1
     4     3    28    1
     5    16    24   ar
     6    16     9   ar
     7     8     7    1
     8    24     5   ar
     9    32    31    1
    10    20     9   ar
    11    20    22   ar
    12     7    28   ar
    13     7    10   ar
    14    28    11   ar
    15     9     6   ar
    16    23    22    1
    17    31    10    1
    18    31    14    2
    19    22    18   ar
    20    10    29   ar
    21     5    14    1
    22     5     2   ar
    23    11    12    1
    24    11    26   ar
    25    14    15    1
    26     6     2   ar
    27     6    13   ar
    28    29    26   ar
    29    29    30    1
    30    18    13   ar
    31    18    19    1
    32    26    27    1
    33    13     1    1
    34     1    33    1
    35    33     4    2
    36    33    34    1
    37    36    34    1
    38    34    37    1
    39    34    35    1
