@<TRIPOS>MOLECULE
(<i>E</i>)-4-Methyl-<i>N</i>-[(5-nitrothiophen-2-yl)methylidene]aniline
 27 28 0 0 0
SMALL
GASTEIGER

@<TRIPOS>ATOM
      1 C           8.8332   11.6887    2.3968 C.3     1  LIG1       -0.0397
      2 H           9.4635   11.5995    1.6775 H       1  LIG1        0.0278
      3 H           9.3007   11.6793    3.2356 H       1  LIG1        0.0278
      4 H           8.3581   12.5168    2.3053 H       1  LIG1        0.0278
      5 C           7.8526   10.5376    2.3527 C.ar    1  LIG1       -0.0503
      6 C           7.4848    9.9569    1.1586 C.ar    1  LIG1       -0.0568
      7 H           7.8652   10.2690    0.3693 H       1  LIG1        0.0621
      8 C           6.5715    8.9284    1.0993 C.ar    1  LIG1       -0.0361
      9 H           6.3359    8.5667    0.2756 H       1  LIG1        0.0639
     10 C           6.0003    8.4284    2.2644 C.ar    1  LIG1        0.0639
     11 C           6.3960    8.9861    3.4638 C.ar    1  LIG1       -0.0361
     12 H           6.0438    8.6579    4.2595 H       1  LIG1        0.0639
     13 C           7.3045   10.0226    3.5026 C.ar    1  LIG1       -0.0568
     14 H           7.5516   10.3809    4.3252 H       1  LIG1        0.0621
     15 C           4.4999    6.9699    1.2565 C.2     1  LIG1        0.0420
     16 H           4.7207    7.3891    0.4565 H       1  LIG1        0.0841
     17 C           3.5400    5.8988    1.2275 C.ar    1  LIG1        0.0324
     18 C           2.9483    5.3750    0.1120 C.ar    1  LIG1       -0.0438
     19 H           3.1324    5.6731   -0.7494 H       1  LIG1        0.0630
     20 C           2.0372    4.3468    0.3909 C.ar    1  LIG1       -0.0235
     21 H           1.5576    3.8771   -0.2541 H       1  LIG1        0.0646
     22 C           1.9491    4.1279    1.7206 C.ar    1  LIG1        0.1640
     23 N           5.0581    7.3675    2.3236 N.2     1  LIG1       -0.2545
     24 N           1.0812    3.1871    2.3570 N.pl3   1  LIG1        0.0632
     25 O           1.0904    3.1339    3.5844 O.2     1  LIG1       -0.1256
     26 O           0.3764    2.4842    1.6485 O.2     1  LIG1       -0.1256
     27 S           2.9567    5.1425    2.6644 S.2     1  LIG1       -0.0636
@<TRIPOS>BOND
     1    19    18    1
     2    21    20    1
     3    18    20   ar
     4    18    17   ar
     5     9     8    1
     6     7     6    1
     7    20    22   ar
     8    16    15    1
     9     8     6   ar
    10     8    10   ar
    11     6     5   ar
    12    17    15    1
    13    17    27   ar
    14    15    23    2
    15    26    24    2
    16     2     1    1
    17    22    24    1
    18    22    27   ar
    19    10    23    1
    20    10    11   ar
    21     4     1    1
    22     5     1    1
    23     5    13   ar
    24    24    25    2
    25     1     3    1
    26    11    13   ar
    27    11    12    1
    28    13    14    1
