@<TRIPOS>MOLECULE
6-Hydroxy-7,8-dimethylchroman-2-one
 26 27 0 0 0
SMALL
GASTEIGER

@<TRIPOS>ATOM
      1 O           4.8803    8.0922    1.2731 O.2     1  LIG1       -0.2504
      2 C           4.4680    6.9661    1.4655 C.2     1  LIG1        0.3127
      3 O           5.3543    6.0456    1.8977 O.3     1  LIG1       -0.4253
      4 C           3.0453    6.5371    1.3043 C.3     1  LIG1        0.0494
      5 H           2.5772    7.1753    0.7100 H       1  LIG1        0.0381
      6 H           2.5965    6.5570    2.1869 H       1  LIG1        0.0381
      7 C           2.9404    5.1324    0.7171 C.3     1  LIG1       -0.0140
      8 H           2.0029    4.8188    0.7641 H       1  LIG1        0.0320
      9 H           3.2154    5.1455   -0.2342 H       1  LIG1        0.0320
     10 C           3.8295    4.1971    1.4913 C.ar    1  LIG1       -0.0008
     11 C           4.9655    4.7085    2.1038 C.ar    1  LIG1        0.1381
     12 C           5.8177    3.9370    2.8993 C.ar    1  LIG1       -0.0015
     13 C           6.9927    4.5624    3.5991 C.3     1  LIG1       -0.0359
     14 H           6.9781    5.5325    3.4586 H       1  LIG1        0.0279
     15 H           7.8241    4.1923    3.2356 H       1  LIG1        0.0279
     16 H           6.9413    4.3706    4.5586 H       1  LIG1        0.0279
     17 C           5.5387    2.5694    3.0432 C.ar    1  LIG1       -0.0026
     18 C           6.4041    1.6842    3.8978 C.3     1  LIG1       -0.0359
     19 H           7.2532    1.5150    3.4381 H       1  LIG1        0.0279
     20 H           5.9446    0.8333    4.0576 H       1  LIG1        0.0279
     21 H           6.5794    2.1271    4.7545 H       1  LIG1        0.0279
     22 C           4.4128    2.0313    2.3974 C.ar    1  LIG1        0.1205
     23 O           4.1728    0.6976    2.5564 O.3     1  LIG1       -0.5065
     24 H           3.4153    0.5298    2.1086 H       1  LIG1        0.2921
     25 C           3.5613    2.8404    1.6462 C.ar    1  LIG1       -0.0132
     26 H           2.7919    2.4627    1.2371 H       1  LIG1        0.0658
@<TRIPOS>BOND
     1     9     7    1
     2     5     4    1
     3     7     8    1
     4     7     4    1
     5     7    10    1
     6    26    25    1
     7     1     2    2
     8     4     2    1
     9     4     6    1
    10     2     3    1
    11    10    25   ar
    12    10    11   ar
    13    25    22   ar
    14     3    11    1
    15    11    12   ar
    16    24    23    1
    17    22    23    1
    18    22    17   ar
    19    12    17   ar
    20    12    13    1
    21    17    18    1
    22    15    13    1
    23    19    18    1
    24    14    13    1
    25    13    16    1
    26    18    20    1
    27    18    21    1
