@<TRIPOS>MOLECULE
1-[2-(4-Chlorophenyl)-5-phenyl-2,3-dihydro-1,3,4-oxadiazol-3-yl]ethanone
 36 38 0 0 0
SMALL
GASTEIGER

@<TRIPOS>ATOM
      1 CL          7.1182   10.4681   14.1233 Cl      1  LIG1       -0.0835
      2 O           5.5972   12.4176    7.9823 O.2     1  LIG1       -0.4469
      3 O           5.6795   15.8757   10.1787 O.2     1  LIG1       -0.2740
      4 N           1.7680   11.1539    5.3539 N.ar    1  LIG1       -0.2594
      5 N           3.7403   13.6812    8.1962 N.2     1  LIG1       -0.1354
      6 N           4.7357   14.2112    9.0246 N.am    1  LIG1       -0.1461
      7 C           4.2557   10.5245    6.3866 C.ar    1  LIG1       -0.0463
      8 H           5.1174   10.3162    6.7281 H       1  LIG1        0.0626
      9 C           3.6152    9.6315    5.5730 C.ar    1  LIG1       -0.0399
     10 H           4.0226    8.8019    5.3518 H       1  LIG1        0.0636
     11 C           2.3712    9.9530    5.0794 C.ar    1  LIG1        0.0383
     12 C           2.4055   12.0286    6.1659 C.ar    1  LIG1        0.0401
     13 H           1.9938   12.8605    6.3656 H       1  LIG1        0.0837
     14 C           3.6567   11.7359    6.7180 C.ar    1  LIG1        0.0559
     15 C           4.2960   12.6635    7.6419 C.2     1  LIG1        0.2413
     16 C           5.9564   13.3872    8.9972 C.3     1  LIG1        0.2169
     17 H           6.7432   13.9303    8.7045 H       1  LIG1        0.1026
     18 C           6.2477   12.6854   10.2969 C.ar    1  LIG1        0.0132
     19 C           7.4776   12.8467   10.9295 C.ar    1  LIG1       -0.0520
     20 H           8.1323   13.4195   10.5480 H       1  LIG1        0.0622
     21 C           7.7556   12.1727   12.1177 C.ar    1  LIG1       -0.0430
     22 H           8.5926   12.2854   12.5528 H       1  LIG1        0.0632
     23 C           6.7885   11.3342   12.6538 C.ar    1  LIG1        0.0410
     24 C           5.5409   11.1737   12.0495 C.ar    1  LIG1       -0.0430
     25 H           4.8835   10.6079   12.4380 H       1  LIG1        0.0632
     26 C           5.2789   11.8575   10.8680 C.ar    1  LIG1       -0.0520
     27 H           4.4338   11.7612   10.4457 H       1  LIG1        0.0622
     28 C           1.6310    8.9667    4.2291 C.3     1  LIG1       -0.0224
     29 H           0.8064    8.6961    4.6847 H       1  LIG1        0.0292
     30 H           2.1942    8.1794    4.0778 H       1  LIG1        0.0292
     31 H           1.4088    9.3791    3.3686 H       1  LIG1        0.0292
     32 C           4.6925   15.4598    9.5741 C.2     1  LIG1        0.2351
     33 C           3.4186   16.2308    9.3897 C.3     1  LIG1        0.0141
     34 H           3.5697   17.1714    9.6206 H       1  LIG1        0.0323
     35 H           2.7244   15.8585    9.9729 H       1  LIG1        0.0323
     36 H           3.1297   16.1661    8.4556 H       1  LIG1        0.0323
@<TRIPOS>BOND
     1    31    28    1
     2    30    28    1
     3    28    29    1
     4    28    11    1
     5    11     4   ar
     6    11     9   ar
     7    10     9    1
     8     4    12   ar
     9     9     7   ar
    10    12    13    1
    11    12    14   ar
    12     7    14   ar
    13     7     8    1
    14    14    15    1
    15    15     2    1
    16    15     5    2
    17     2    16    1
    18     5     6    1
    19    36    33    1
    20    17    16    1
    21    16     6    1
    22    16    18    1
    23     6    32   am
    24    33    32    1
    25    33    34    1
    26    33    35    1
    27    32     3    2
    28    18    26   ar
    29    18    19   ar
    30    27    26    1
    31    20    19    1
    32    26    24   ar
    33    19    21   ar
    34    24    25    1
    35    24    23   ar
    36    21    22    1
    37    21    23   ar
    38    23     1    1
