@<TRIPOS>MOLECULE
Methyl 2-{<i>N</i>-[2-(2,4-dichlorophenoxy)acetyl]- 4-[(4,6-dimethoxypyrimidin-2-yl)oxy]anilino}propanoate
 59 61 0 0 0
SMALL
GASTEIGER

@<TRIPOS>ATOM
      1 C           0.4197    2.4206    7.8028 C.ar    1  LIG1        0.2240
      2 C           1.0306    1.4011    8.5086 C.ar    1  LIG1        0.0617
      3 H           0.5556    0.8524    9.0904 H       1  LIG1        0.0724
      4 C           2.3749    1.2453    8.3010 C.ar    1  LIG1        0.2240
      5 C           2.3681    2.9157    6.8485 C.ar    1  LIG1        0.3296
      6 C          -1.5025    3.7064    7.2595 C.3     1  LIG1        0.0804
      7 H          -1.1757    4.5453    7.5944 H       1  LIG1        0.0660
      8 H          -2.4547    3.6649    7.3753 H       1  LIG1        0.0660
      9 H          -1.2908    3.6313    6.3259 H       1  LIG1        0.0660
     10 C           4.3954    0.0990    8.7597 C.3     1  LIG1        0.0804
     11 H           4.5540   -0.1925    7.8596 H       1  LIG1        0.0660
     12 H           4.7331   -0.5589    9.3723 H       1  LIG1        0.0660
     13 H           4.8415    0.9349    8.9104 H       1  LIG1        0.0660
     14 C           2.5513    4.5339    5.0964 C.ar    1  LIG1        0.1320
     15 C           1.7177    4.0579    4.1087 C.ar    1  LIG1       -0.0175
     16 H           1.4319    3.1735    4.1210 H       1  LIG1        0.0655
     17 C           1.3147    4.9067    3.1036 C.ar    1  LIG1       -0.0368
     18 H           0.7381    4.6017    2.4408 H       1  LIG1        0.0637
     19 C           1.7697    6.2218    3.0802 C.ar    1  LIG1        0.0375
     20 C           2.5793    6.6881    4.0931 C.ar    1  LIG1       -0.0368
     21 H           2.8633    7.5737    4.0917 H       1  LIG1        0.0637
     22 C           2.9661    5.8366    5.1112 C.ar    1  LIG1       -0.0175
     23 H           3.5063    6.1481    5.8012 H       1  LIG1        0.0655
     24 C           1.9051    6.9248    0.7453 C.2     1  LIG1        0.2581
     25 C           2.9529    5.8364    0.5600 C.3     1  LIG1        0.1658
     26 H           3.6383    5.9243    1.2406 H       1  LIG1        0.0795
     27 H           2.5383    4.9652    0.6587 H       1  LIG1        0.0795
     28 C           4.3429    7.0223   -0.9759 C.ar    1  LIG1        0.1395
     29 C           4.7286    7.2103   -2.3023 C.ar    1  LIG1        0.0839
     30 C           5.5601    8.2454   -2.6653 C.ar    1  LIG1       -0.0215
     31 H           5.8059    8.3630   -3.5544 H       1  LIG1        0.0648
     32 C           6.0232    9.1063   -1.6928 C.ar    1  LIG1        0.0426
     33 C           5.6572    8.9429   -0.3852 C.ar    1  LIG1       -0.0398
     34 H           5.9754    9.5280    0.2638 H       1  LIG1        0.0633
     35 C           4.8146    7.9075   -0.0280 C.ar    1  LIG1       -0.0171
     36 H           4.5635    7.8065    0.8610 H       1  LIG1        0.0655
     37 C           0.5518    8.2611    2.1728 C.3     1  LIG1        0.1250
     38 H          -0.0479    8.2949    1.3969 H       1  LIG1        0.0617
     39 C          -0.3183    8.2349    3.3520 C.3     1  LIG1       -0.0356
     40 H          -0.7660    7.3873    3.4023 H       1  LIG1        0.0253
     41 H          -0.9690    8.9379    3.2865 H       1  LIG1        0.0253
     42 H           0.2115    8.3635    4.1433 H       1  LIG1        0.0253
     43 C           1.4343    9.5081    2.0764 C.2     1  LIG1        0.3277
     44 C           1.4162   11.8259    1.6397 C.3     1  LIG1        0.0817
     45 H           1.9234   12.0055    2.4338 H       1  LIG1        0.0661
     46 H           0.7875   12.5356    1.4932 H       1  LIG1        0.0661
     47 H           2.0102   11.7635    0.8876 H       1  LIG1        0.0661
     48 CL          4.1593    6.1309   -3.5152 Cl      1  LIG1       -0.0797
     49 CL          7.0664   10.4191   -2.1435 Cl      1  LIG1       -0.0835
     50 N           1.0899    3.2037    6.9522 N.ar    1  LIG1       -0.1591
     51 N           3.0818    1.9974    7.4680 N.ar    1  LIG1       -0.1591
     52 N           1.3877    7.0727    1.9839 N.am    1  LIG1       -0.2551
     53 O          -0.8849    2.6312    7.9782 O.3     1  LIG1       -0.4794
     54 O           3.0050    0.2635    8.9643 O.3     1  LIG1       -0.4794
     55 O           3.1415    3.6759    6.0239 O.3     1  LIG1       -0.4235
     56 O           1.5727    7.6350   -0.1837 O.2     1  LIG1       -0.2715
     57 O           3.5445    5.9405   -0.7301 O.3     1  LIG1       -0.4813
     58 O           0.7002   10.5697    1.7960 O.3     1  LIG1       -0.4666
     59 O           2.6232    9.5257    2.2334 O.2     1  LIG1       -0.2487
@<TRIPOS>BOND
     1    31    30    1
     2    48    29    1
     3    30    29   ar
     4    30    32   ar
     5    29    28   ar
     6    49    32    1
     7    32    33   ar
     8    28    57    1
     9    28    35   ar
    10    57    25    1
    11    33    35   ar
    12    33    34    1
    13    56    24    2
    14    35    36    1
    15    25    27    1
    16    25    24    1
    17    25    26    1
    18    24    52   am
    19    47    44    1
    20    38    37    1
    21    46    44    1
    22    44    58    1
    23    44    45    1
    24    58    43    1
    25    52    37    1
    26    52    19    1
    27    43    37    1
    28    43    59    2
    29    37    39    1
    30    18    17    1
    31    19    17   ar
    32    19    20   ar
    33    17    15   ar
    34    41    39    1
    35    39    40    1
    36    39    42    1
    37    21    20    1
    38    20    22   ar
    39    15    16    1
    40    15    14   ar
    41    14    22   ar
    42    14    55    1
    43    22    23    1
    44    55     5    1
    45     9     6    1
    46     5    50   ar
    47     5    51   ar
    48    50     1   ar
    49     6     8    1
    50     6     7    1
    51     6    53    1
    52    51     4   ar
    53     1    53    1
    54     1     2   ar
    55    11    10    1
    56     4     2   ar
    57     4    54    1
    58     2     3    1
    59    10    13    1
    60    10    54    1
    61    10    12    1
