@<TRIPOS>MOLECULE
2-Hydroxy-2-trifluoromethyl-3,4-dihydro-2<i>H</i>-1-benzopyran-4-one
 23 24 0 0 0
SMALL
GASTEIGER

@<TRIPOS>ATOM
      1 F           7.6823    3.7047    5.4550 F       1  LIG1       -0.1645
      2 F           5.9597    2.5097    5.9069 F       1  LIG1       -0.1645
      3 F           5.8907    3.9113    4.2826 F       1  LIG1       -0.1645
      4 O           6.3401    4.4806    7.7273 O.3     1  LIG1       -0.4515
      5 O           2.7628    6.4408    7.4173 O.2     1  LIG1       -0.2917
      6 O           6.3554    6.0598    6.0191 O.3     1  LIG1       -0.3485
      7 C           5.8826    5.2479    8.7773 C.ar    1  LIG1        0.1350
      8 C           6.6993    5.3193    9.9037 C.ar    1  LIG1       -0.0191
      9 H           7.5291    4.8572    9.9271 H       1  LIG1        0.0654
     10 C           6.2847    6.0709   10.9870 C.ar    1  LIG1       -0.0583
     11 H           6.8334    6.1162   11.7609 H       1  LIG1        0.0619
     12 C           5.0742    6.7644   10.9627 C.ar    1  LIG1       -0.0609
     13 H           4.8059    7.2831   11.7123 H       1  LIG1        0.0618
     14 C           4.2687    6.6924    9.8430 C.ar    1  LIG1       -0.0477
     15 H           3.4412    7.1590    9.8271 H       1  LIG1        0.0626
     16 C           4.6648    5.9356    8.7279 C.ar    1  LIG1        0.0594
     17 C           3.8269    5.8475    7.5259 C.2     1  LIG1        0.1732
     18 C           4.3283    4.9194    6.4436 C.3     1  LIG1        0.0851
     19 H           3.9469    4.0155    6.5828 H       1  LIG1        0.0413
     20 H           4.0210    5.2472    5.5613 H       1  LIG1        0.0413
     21 C           5.8369    4.8330    6.4486 C.3     1  LIG1        0.3137
     22 C           6.3427    3.7238    5.5169 C.3     1  LIG1        0.4567
     23 H           7.1925    6.0653    6.2249 H       1  LIG1        0.2141
@<TRIPOS>BOND
     1     3    22    1
     2     1    22    1
     3    22     2    1
     4    22    21    1
     5    20    18    1
     6     6    23    1
     7     6    21    1
     8    18    21    1
     9    18    19    1
    10    18    17    1
    11    21     4    1
    12     5    17    2
    13    17    16    1
    14     4     7    1
    15    16     7   ar
    16    16    14   ar
    17     7     8   ar
    18    15    14    1
    19    14    12   ar
    20     8     9    1
    21     8    10   ar
    22    12    10   ar
    23    12    13    1
    24    10    11    1
