@<TRIPOS>MOLECULE
2-(2-Nitrophenyl)-1,3-benzothiazole
 26 28 0 0 0
SMALL
GASTEIGER

@<TRIPOS>ATOM
      1 C           1.7126    0.6724    7.1753 C.ar    1  LIG1        0.1116
      2 C           1.1517    2.7026    7.7921 C.ar    1  LIG1        0.0789
      3 C           0.6517    3.7301    8.5905 C.ar    1  LIG1       -0.0352
      4 H           0.3117    3.5492    9.4375 H       1  LIG1        0.0639
      5 C           0.6701    5.0129    8.1059 C.ar    1  LIG1       -0.0597
      6 H           0.3431    5.7048    8.6339 H       1  LIG1        0.0618
      7 C           1.1662    5.2946    6.8477 C.ar    1  LIG1       -0.0606
      8 H           1.1699    6.1753    6.5483 H       1  LIG1        0.0618
      9 C           1.6528    4.3086    6.0294 C.ar    1  LIG1       -0.0459
     10 H           1.9791    4.5043    5.1811 H       1  LIG1        0.0629
     11 C           1.6412    3.0015    6.5156 C.ar    1  LIG1        0.0395
     12 C           1.9394   -0.7844    7.2287 C.ar    1  LIG1        0.0373
     13 C           1.5280   -1.6053    6.1843 C.ar    1  LIG1       -0.0499
     14 H           1.1137   -1.2312    5.4401 H       1  LIG1        0.0625
     15 C           1.7268   -2.9711    6.2397 C.ar    1  LIG1       -0.0610
     16 H           1.4522   -3.5070    5.5313 H       1  LIG1        0.0618
     17 C           2.3273   -3.5417    7.3322 C.ar    1  LIG1       -0.0596
     18 H           2.4586   -4.4621    7.3602 H       1  LIG1        0.0618
     19 C           2.7378   -2.7563    8.3901 C.ar    1  LIG1       -0.0308
     20 H           3.1338   -3.1388    9.1400 H       1  LIG1        0.0640
     21 C           2.5491   -1.3946    8.3114 C.ar    1  LIG1        0.1358
     22 N           1.2076    1.3627    8.1417 N.ar    1  LIG1       -0.2390
     23 N           3.1089   -0.5721    9.3823 N.pl3   1  LIG1        0.0571
     24 O           3.8476    0.3354    9.0580 O.2     1  LIG1       -0.1261
     25 O           2.8327   -0.8550   10.5263 O.2     1  LIG1       -0.1261
     26 S           2.1619    1.5474    5.7480 S.2     1  LIG1       -0.0671
@<TRIPOS>BOND
     1    10     9    1
     2    14    13    1
     3    16    15    1
     4    26    11   ar
     5    26     1   ar
     6     9    11   ar
     7     9     7   ar
     8    13    15   ar
     9    13    12   ar
    10    15    17   ar
    11    11     2   ar
    12     8     7    1
    13     7     5   ar
    14     1    12    1
    15     1    22   ar
    16    12    21   ar
    17    17    18    1
    18    17    19   ar
    19     2    22   ar
    20     2     3   ar
    21     5     3   ar
    22     5     6    1
    23    21    19   ar
    24    21    23    1
    25    19    20    1
    26     3     4    1
    27    24    23    2
    28    23    25    2
