@<TRIPOS>MOLECULE
1,8-Dibenzoylnaphthalene-2,7-diyl dibenzoate
 68 73 0 0 0
SMALL
GASTEIGER

@<TRIPOS>ATOM
      1 O          11.1466    1.9595    8.7666 O.2     1  LIG1       -0.2865
      2 O           9.0157   -0.3442    8.9396 O.2     1  LIG1       -0.2865
      3 O          13.5471    1.0608   11.4354 O.3     1  LIG1       -0.4216
      4 O          13.7956   -0.8116   12.6712 O.2     1  LIG1       -0.2445
      5 O           6.3786    1.5494   10.2187 O.3     1  LIG1       -0.4216
      6 O           5.9003    3.7526   10.3603 O.2     1  LIG1       -0.2445
      7 C          11.2132    1.1442   10.9569 C.ar    1  LIG1        0.0730
      8 C          12.2247    1.1820   11.8879 C.ar    1  LIG1        0.1434
      9 C          12.0149    1.4735   13.2444 C.ar    1  LIG1       -0.0179
     10 H          12.7443    1.4979   13.8522 H       1  LIG1        0.0655
     11 C          10.7481    1.7194   13.6695 C.ar    1  LIG1       -0.0505
     12 H          10.5941    1.9143   14.5869 H       1  LIG1        0.0625
     13 C           9.6537    1.6908   12.7722 C.ar    1  LIG1       -0.0161
     14 C           8.3505    1.9810   13.2450 C.ar    1  LIG1       -0.0505
     15 H           8.2189    2.1592   14.1689 H       1  LIG1        0.0625
     16 C           7.2846    2.0093   12.4039 C.ar    1  LIG1       -0.0179
     17 H           6.4181    2.2338   12.7223 H       1  LIG1        0.0655
     18 C           7.4946    1.6983   11.0536 C.ar    1  LIG1        0.1434
     19 C           8.7215    1.3723   10.5282 C.ar    1  LIG1        0.0730
     20 C           9.8668    1.3965   11.3969 C.ar    1  LIG1        0.0108
     21 C          11.5507    1.0699    9.4944 C.2     1  LIG1        0.1973
     22 C          12.3792   -0.0344    8.9566 C.ar    1  LIG1        0.0224
     23 C          12.5420   -1.2424    9.6317 C.ar    1  LIG1       -0.0509
     24 H          12.1122   -1.3786   10.4677 H       1  LIG1        0.0625
     25 C          13.3256   -2.2414    9.0918 C.ar    1  LIG1       -0.0611
     26 H          13.4394   -3.0604    9.5608 H       1  LIG1        0.0618
     27 C          13.9463   -2.0509    7.8670 C.ar    1  LIG1       -0.0617
     28 H          14.4892   -2.7360    7.4961 H       1  LIG1        0.0618
     29 C          13.7723   -0.8607    7.1842 C.ar    1  LIG1       -0.0611
     30 H          14.1903   -0.7347    6.3409 H       1  LIG1        0.0618
     31 C          12.9980    0.1413    7.7190 C.ar    1  LIG1       -0.0509
     32 H          12.8847    0.9559    7.2453 H       1  LIG1        0.0625
     33 C           8.7252    0.8249    9.1179 C.2     1  LIG1        0.1973
     34 C           8.2941    1.7092    8.0002 C.ar    1  LIG1        0.0224
     35 C           7.7305    1.1377    6.8633 C.ar    1  LIG1       -0.0509
     36 H           7.6066    0.1964    6.8146 H       1  LIG1        0.0625
     37 C           7.3487    1.9430    5.8016 C.ar    1  LIG1       -0.0611
     38 H           6.9331    1.5563    5.0413 H       1  LIG1        0.0618
     39 C           7.5702    3.3000    5.8449 C.ar    1  LIG1       -0.0617
     40 H           7.3311    3.8436    5.1021 H       1  LIG1        0.0618
     41 C           8.1403    3.8743    6.9674 C.ar    1  LIG1       -0.0611
     42 H           8.2981    4.8107    6.9945 H       1  LIG1        0.0618
     43 C           8.4807    3.0843    8.0514 C.ar    1  LIG1       -0.0509
     44 H           8.8437    3.4843    8.8337 H       1  LIG1        0.0625
     45 C          14.2721    0.0015   11.9309 C.2     1  LIG1        0.3445
     46 C          15.6612   -0.0050   11.4215 C.ar    1  LIG1        0.0594
     47 C          16.4516   -1.1041   11.7366 C.ar    1  LIG1       -0.0478
     48 H          16.0883   -1.8211   12.2435 H       1  LIG1        0.0626
     49 C          17.7665   -1.1543   11.3151 C.ar    1  LIG1       -0.0610
     50 H          18.3051   -1.9069   11.5317 H       1  LIG1        0.0618
     51 C          18.2961   -0.1156   10.5832 C.ar    1  LIG1       -0.0617
     52 H          19.2019   -0.1504   10.2979 H       1  LIG1        0.0618
     53 C          17.5130    0.9795   10.2605 C.ar    1  LIG1       -0.0610
     54 H          17.8819    1.6931    9.7533 H       1  LIG1        0.0618
     55 C          16.1924    1.0373   10.6772 C.ar    1  LIG1       -0.0478
     56 H          15.6544    1.7875   10.4550 H       1  LIG1        0.0626
     57 C           5.6102    2.6522    9.9813 C.2     1  LIG1        0.3445
     58 C           4.4033    2.3010    9.1914 C.ar    1  LIG1        0.0594
     59 C           4.0338    0.9798    8.9730 C.ar    1  LIG1       -0.0478
     60 H           4.5560    0.2735    9.3328 H       1  LIG1        0.0626
     61 C           2.9025    0.6962    8.2287 C.ar    1  LIG1       -0.0610
     62 H           2.6562   -0.2076    8.0712 H       1  LIG1        0.0618
     63 C           2.1309    1.7193    7.7152 C.ar    1  LIG1       -0.0617
     64 H           1.3614    1.5190    7.1946 H       1  LIG1        0.0618
     65 C           2.4768    3.0332    7.9574 C.ar    1  LIG1       -0.0610
     66 H           1.9341    3.7367    7.6228 H       1  LIG1        0.0618
     67 C           3.6162    3.3247    8.6883 C.ar    1  LIG1       -0.0478
     68 H           3.8591    4.2302    8.8464 H       1  LIG1        0.0626
@<TRIPOS>BOND
     1    38    37    1
     2    40    39    1
     3    37    39   ar
     4    37    35   ar
     5    39    41   ar
     6    30    29    1
     7    36    35    1
     8    35    34   ar
     9    41    42    1
    10    41    43   ar
    11    29    31   ar
    12    29    27   ar
    13    64    63    1
    14    32    31    1
    15    28    27    1
    16    66    65    1
    17    63    65   ar
    18    63    61   ar
    19    31    22   ar
    20    27    25   ar
    21    65    67   ar
    22    34    43   ar
    23    34    33    1
    24    43    44    1
    25    62    61    1
    26    61    59   ar
    27    67    68    1
    28    67    58   ar
    29     1    21    2
    30     2    33    2
    31    22    21    1
    32    22    23   ar
    33    59    58   ar
    34    59    60    1
    35    25    26    1
    36    25    23   ar
    37    33    19    1
    38    58    57    1
    39    21     7    1
    40    23    24    1
    41    54    53    1
    42    57     5    1
    43    57     6    2
    44     5    18    1
    45    53    51   ar
    46    53    55   ar
    47    52    51    1
    48    56    55    1
    49    19    18   ar
    50    19    20   ar
    51    51    49   ar
    52    55    46   ar
    53     7    20   ar
    54     7     8   ar
    55    18    16   ar
    56    49    50    1
    57    49    47   ar
    58    20    13   ar
    59    46    47   ar
    60    46    45    1
    61     3     8    1
    62     3    45    1
    63    47    48    1
    64     8     9   ar
    65    45     4    2
    66    16    17    1
    67    16    14   ar
    68    13    14   ar
    69    13    11   ar
    70     9    11   ar
    71     9    10    1
    72    14    15    1
    73    11    12    1
