@<TRIPOS>MOLECULE
(<i>E</i>)-bis(2-iodophenyl)diazene
 24 25 0 0 0
SMALL
GASTEIGER

@<TRIPOS>ATOM
      1 C           2.9502   11.2365   11.3027 C.ar    1  LIG1        0.0854
      2 C           3.5618   12.1983   12.0877 C.ar    1  LIG1        0.0378
      3 C           4.5073   13.0566   11.5358 C.ar    1  LIG1       -0.0467
      4 C           4.8279   12.9517   10.2038 C.ar    1  LIG1       -0.0607
      5 C           4.2126   12.0056    9.4132 C.ar    1  LIG1       -0.0598
      6 C           3.2898   11.1418    9.9560 C.ar    1  LIG1       -0.0362
      7 I           3.0865   12.4080   14.1075 I       1  LIG1       -0.0418
      8 H           4.9213   13.6988   12.0664 H       1  LIG1        0.0628
      9 H           5.4627   13.5213    9.8344 H       1  LIG1        0.0618
     10 H           4.4220   11.9511    8.5085 H       1  LIG1        0.0618
     11 H           2.8917   10.4932    9.4208 H       1  LIG1        0.0637
     12 N           1.9866   10.3885   11.9173 N.pl3   1  LIG1       -0.1283
     13 N           1.4781    9.5642   11.1490 N.pl3   1  LIG1       -0.1283
     14 C           0.5179    8.7030   11.7404 C.ar    1  LIG1        0.0854
     15 C          -0.0779    7.7546   10.9242 C.ar    1  LIG1        0.0378
     16 C          -1.0237    6.8776   11.4415 C.ar    1  LIG1       -0.0467
     17 C          -1.3655    6.9539   12.7658 C.ar    1  LIG1       -0.0607
     18 C          -0.7735    7.8846   13.5854 C.ar    1  LIG1       -0.0598
     19 C           0.1503    8.7684   13.0790 C.ar    1  LIG1       -0.0362
     20 I           0.4227    7.6294    8.9035 I       1  LIG1       -0.0418
     21 H          -1.4223    6.2427   10.8911 H       1  LIG1        0.0628
     22 H          -2.0024    6.3713   13.1125 H       1  LIG1        0.0618
     23 H          -0.9986    7.9161   14.4870 H       1  LIG1        0.0618
     24 H           0.5297    9.4102   13.6340 H       1  LIG1        0.0637
@<TRIPOS>BOND
     1    10     5    1
     2    20    15    1
     3     5     6   ar
     4     5     4   ar
     5    11     6    1
     6     9     4    1
     7     6     1   ar
     8     4     3   ar
     9    21    16    1
    10    15    16   ar
    11    15    14   ar
    12    13    14    1
    13    13    12    1
    14     1    12    1
    15     1     2   ar
    16    16    17   ar
    17     3     8    1
    18     3     2   ar
    19    14    19   ar
    20     2     7    1
    21    17    22    1
    22    17    18   ar
    23    19    18   ar
    24    19    24    1
    25    18    23    1
