@<TRIPOS>MOLECULE
4-<i>tert</i>-Butyl-<i>N</i>-[(2,6-dimethylphenyl)carbamothioyl]benzamide
 96 98 0 0 0
SMALL
GASTEIGER

@<TRIPOS>ATOM
      1 S           5.3457    6.2830    2.6705 S.2     1  LIG1       -0.0182
      2 O           1.2286    6.2861    4.6525 O.2     1  LIG1       -0.2698
      3 N           2.7197    6.3363    2.9244 N.am    1  LIG1       -0.2636
      4 N           3.9116    6.2059    4.9162 N.am    1  LIG1       -0.2962
      5 C          -0.9076    6.8241    2.9231 C.ar    1  LIG1       -0.0493
      6 H          -1.0300    6.9675    3.8335 H       1  LIG1        0.0625
      7 C          -1.9792    6.9745    2.0526 C.ar    1  LIG1       -0.0574
      8 H          -2.8081    7.2257    2.3922 H       1  LIG1        0.0621
      9 C          -1.8431    6.7580    0.6823 C.ar    1  LIG1       -0.0419
     10 C          -0.5777    6.3801    0.2200 C.ar    1  LIG1       -0.0574
     11 H          -0.4582    6.2229   -0.6887 H       1  LIG1        0.0621
     12 C           0.5006    6.2335    1.0763 C.ar    1  LIG1       -0.0493
     13 H           1.3307    5.9823    0.7377 H       1  LIG1        0.0625
     14 C           0.3472    6.4620    2.4474 C.ar    1  LIG1        0.0371
     15 C           1.4473    6.3488    3.4465 C.2     1  LIG1        0.2495
     16 C           3.9522    6.2713    3.5903 C.2     1  LIG1        0.1411
     17 C           5.1209    6.1462    5.6948 C.ar    1  LIG1        0.0385
     18 C           5.6418    4.8944    6.0179 C.ar    1  LIG1       -0.0290
     19 C           6.8323    4.8550    6.7479 C.ar    1  LIG1       -0.0571
     20 H           7.2108    4.0358    6.9720 H       1  LIG1        0.0621
     21 C           7.4523    6.0306    7.1381 C.ar    1  LIG1       -0.0611
     22 H           8.2520    5.9911    7.6116 H       1  LIG1        0.0618
     23 C           6.8969    7.2674    6.8340 C.ar    1  LIG1       -0.0571
     24 H           7.3179    8.0469    7.1170 H       1  LIG1        0.0621
     25 C           5.7086    7.3411    6.1049 C.ar    1  LIG1       -0.0290
     26 C           4.9251    3.6399    5.6068 C.3     1  LIG1       -0.0379
     27 H           4.8176    3.6305    4.6523 H       1  LIG1        0.0278
     28 H           4.0612    3.6128    6.0253 H       1  LIG1        0.0278
     29 H           5.4380    2.8753    5.8782 H       1  LIG1        0.0278
     30 C           5.0655    8.6598    5.7850 C.3     1  LIG1       -0.0379
     31 H           4.9275    8.7272    4.8377 H       1  LIG1        0.0278
     32 H           5.6379    9.3740    6.0765 H       1  LIG1        0.0278
     33 H           4.2218    8.7219    6.2364 H       1  LIG1        0.0278
     34 C          -2.9932    6.9622   -0.3079 C.3     1  LIG1       -0.0127
     35 C          -2.6797    8.2073   -1.1552 C.3     1  LIG1       -0.0560
     36 H          -2.6155    8.9757   -0.5821 H       1  LIG1        0.0238
     37 H          -3.3809    8.3430   -1.7952 H       1  LIG1        0.0238
     38 H          -1.8469    8.0795   -1.6140 H       1  LIG1        0.0238
     39 C          -3.1328    5.7279   -1.2181 C.3     1  LIG1       -0.0560
     40 H          -3.3369    4.9575   -0.6823 H       1  LIG1        0.0238
     41 H          -2.3079    5.5823   -1.6886 H       1  LIG1        0.0238
     42 H          -3.8410    5.8748   -1.8507 H       1  LIG1        0.0238
     43 C          -4.3331    7.1799    0.4006 C.3     1  LIG1       -0.0560
     44 H          -4.2903    7.9826    0.9253 H       1  LIG1        0.0238
     45 H          -4.5168    6.4317    0.9744 H       1  LIG1        0.0238
     46 H          -5.0304    7.2609   -0.2537 H       1  LIG1        0.0238
     47 S           2.8891    6.3419    8.0085 S.2     2  LIG2       -0.0182
     48 O          -1.2390    7.1178    9.7979 O.2     2  LIG2       -0.2698
     49 N           0.2580    6.4710    8.1907 N.am    2  LIG2       -0.2636
     50 N           1.4197    6.7154   10.1955 N.am    2  LIG2       -0.2962
     51 C          -3.2320    7.4762    7.7783 C.ar    2  LIG2       -0.0493
     52 H          -3.2762    8.0875    8.4772 H       2  LIG2        0.0625
     53 C          -4.2942    7.3568    6.8952 C.ar    2  LIG2       -0.0574
     54 H          -5.0287    7.9174    6.9933 H       2  LIG2        0.0621
     55 C          -4.2889    6.4120    5.8562 C.ar    2  LIG2       -0.0419
     56 C          -3.1350    5.6435    5.6961 C.ar    2  LIG2       -0.0574
     57 H          -3.0902    5.0254    5.0019 H       2  LIG2        0.0621
     58 C          -2.0474    5.7852    6.5558 C.ar    2  LIG2       -0.0493
     59 H          -1.2816    5.2756    6.4155 H       2  LIG2        0.0625
     60 C          -2.0935    6.6792    7.6189 C.ar    2  LIG2        0.0371
     61 C          -1.0063    6.7819    8.6429 C.2     2  LIG2        0.2495
     62 C           1.4801    6.5248    8.8783 C.2     2  LIG2        0.1411
     63 C           2.6121    6.8346   10.9961 C.ar    2  LIG2        0.0385
     64 C           3.2663    5.6724   11.4085 C.ar    2  LIG2       -0.0290
     65 C           4.4247    5.8171   12.1718 C.ar    2  LIG2       -0.0571
     66 H           4.8834    5.0624   12.4621 H       2  LIG2        0.0621
     67 C           4.8947    7.0791   12.5016 C.ar    2  LIG2       -0.0611
     68 H           5.6763    7.1631   12.9994 H       2  LIG2        0.0618
     69 C           4.2151    8.2157   12.1005 C.ar    2  LIG2       -0.0571
     70 H           4.5402    9.0550   12.3364 H       2  LIG2        0.0621
     71 C           3.0479    8.1130   11.3439 C.ar    2  LIG2       -0.0290
     72 C           2.7191    4.3172   11.0810 C.3     2  LIG2       -0.0379
     73 H           3.3250    3.6428   11.3961 H       2  LIG2        0.0278
     74 H           2.6156    4.2358   10.1296 H       2  LIG2        0.0278
     75 H           1.8670    4.2050   11.5070 H       2  LIG2        0.0278
     76 C           2.2718    9.3251   10.9211 C.3     2  LIG2       -0.0379
     77 H           2.1394    9.3053    9.9697 H       2  LIG2        0.0278
     78 H           2.7589   10.1168   11.1594 H       2  LIG2        0.0278
     79 H           1.4191    9.3291   11.3620 H       2  LIG2        0.0278
     80 C          -5.5322    6.2402    4.9716 C.3     2  LIG2       -0.0127
     81 C          -6.7481    5.9550    5.8629 C.3     2  LIG2       -0.0560
     82 H          -6.5901    5.1593    6.3771 H       2  LIG2        0.0238
     83 H          -7.5246    5.8308    5.3132 H       2  LIG2        0.0238
     84 H          -6.8912    6.6961    6.4560 H       2  LIG2        0.0238
     85 C          -5.3814    5.0685    3.9949 C.3     2  LIG2       -0.0560
     86 H          -5.2339    4.2579    4.4881 H       2  LIG2        0.0238
     87 H          -4.6335    5.2298    3.4135 H       2  LIG2        0.0238
     88 H          -6.1823    4.9831    3.4711 H       2  LIG2        0.0238
     89 C          -5.7862    7.5306    4.1683 C.3     2  LIG2       -0.0560
     90 H          -6.5729    7.4222    3.6288 H       2  LIG2        0.0238
     91 H          -5.0320    7.7086    3.6011 H       2  LIG2        0.0238
     92 H          -5.9130    8.2646    4.7738 H       2  LIG2        0.0238
     93 H           3.1760    6.2299    5.3111 H       1  LIG1        0.1538
     94 H           0.6724    6.8380   10.5646 H       2  LIG2        0.1538
     95 H           0.3517    6.3445    7.3792 H       2  LIG2        0.1568
     96 H           2.7976    6.4062    2.1193 H       1  LIG1        0.1568
@<TRIPOS>BOND
     1    42    39    1
     2    37    35    1
     3    41    39    1
     4    38    35    1
     5    39    40    1
     6    39    34    1
     7    35    36    1
     8    35    34    1
     9    11    10    1
    10    34    43    1
    11    34     9    1
    12    46    43    1
    13    10     9   ar
    14    10    12   ar
    15    43    44    1
    16    43    45    1
    17     9     7   ar
    18    13    12    1
    19    12    14   ar
    20     7     8    1
    21     7     5   ar
    22    96     3    1
    23    14     5   ar
    24    14    15    1
    25     1    16    2
    26     5     6    1
    27     3    15   am
    28     3    16    1
    29    87    85    1
    30    15     2    2
    31    88    85    1
    32    16     4    1
    33    91    89    1
    34    90    89    1
    35    85    86    1
    36    85    80    1
    37    89    92    1
    38    89    80    1
    39    27    26    1
    40    31    30    1
    41     4    93    1
    42     4    17    1
    43    80    55    1
    44    80    81    1
    45    57    56    1
    46    83    81    1
    47    26    29    1
    48    26    18    1
    49    26    28    1
    50    17    18   ar
    51    17    25   ar
    52    56    55   ar
    53    56    58   ar
    54    30    32    1
    55    30    25    1
    56    30    33    1
    57    55    53   ar
    58    81    82    1
    59    81    84    1
    60    18    19   ar
    61    25    23   ar
    62    59    58    1
    63    58    60   ar
    64    19    20    1
    65    19    21   ar
    66    23    24    1
    67    23    21   ar
    68    53    54    1
    69    53    51   ar
    70    21    22    1
    71    95    49    1
    72    60    51   ar
    73    60    61    1
    74    51    52    1
    75    47    62    2
    76    49    61   am
    77    49    62    1
    78    61    48    2
    79    62    50    1
    80    77    76    1
    81    74    72    1
    82    50    94    1
    83    50    63    1
    84    76    78    1
    85    76    71    1
    86    76    79    1
    87    63    71   ar
    88    63    64   ar
    89    72    73    1
    90    72    64    1
    91    72    75    1
    92    71    69   ar
    93    64    65   ar
    94    69    70    1
    95    69    67   ar
    96    65    66    1
    97    65    67   ar
    98    67    68    1
