@<TRIPOS>MOLECULE
Methyl 3-[(1,1-dioxo-1\l^6^,2-benzothiazol-3-yl)amino]-5-nitrothiophene-2- carboxylate
 66 70 0 0 0
SMALL
GASTEIGER

@<TRIPOS>ATOM
      1 S           5.0985    4.1983    2.1467 S.O2    1  LIG1        0.1797
      2 S           5.7880   -0.5499    7.1643 S.2     1  LIG1       -0.0539
      3 N           5.2354    3.1046    3.3754 N.2     1  LIG1        0.0960
      4 N           6.1847    2.9937    5.5158 N.pl3   1  LIG1       -0.1971
      5 N           3.8071   -1.3515    5.4894 N.pl3   1  LIG1        0.0634
      6 O           3.7177    4.4972    1.9092 O.2     1  LIG1       -0.1251
      7 O           5.8567    3.7388    1.0167 O.2     1  LIG1       -0.1251
      8 O           2.9405   -1.0980    4.6735 O.2     1  LIG1       -0.1256
      9 O           3.9462   -2.4271    6.0576 O.2     1  LIG1       -0.1256
     10 O           7.7488    2.7840    7.7862 O.2     1  LIG1       -0.2442
     11 O           7.7284    0.7684    8.8137 O.3     1  LIG1       -0.4640
     12 C           5.9145    5.5285    2.9678 C.ar    1  LIG1        0.1495
     13 C           6.1227    6.8310    2.5570 C.ar    1  LIG1       -0.0320
     14 H           5.8256    7.1372    1.7309 H       1  LIG1        0.0638
     15 C           6.8027    7.6592    3.4441 C.ar    1  LIG1       -0.0598
     16 H           6.9492    8.5476    3.2127 H       1  LIG1        0.0618
     17 C           7.2672    7.1925    4.6708 C.ar    1  LIG1       -0.0608
     18 H           7.7445    7.7640    5.2281 H       1  LIG1        0.0618
     19 C           7.0268    5.8847    5.0719 C.ar    1  LIG1       -0.0448
     20 H           7.3248    5.5758    5.8975 H       1  LIG1        0.0627
     21 C           6.3292    5.0495    4.2077 C.ar    1  LIG1        0.0966
     22 C           5.8906    3.6419    4.3718 C.2     1  LIG1        0.3512
     23 C           5.8267    1.6833    5.8499 C.ar    1  LIG1        0.1422
     24 C           4.8511    0.8886    5.2087 C.ar    1  LIG1        0.0214
     25 H           4.3567    1.1458    4.4644 H       1  LIG1        0.0687
     26 C           4.7438   -0.3137    5.8469 C.ar    1  LIG1        0.1681
     27 C           6.4067    1.0345    6.9393 C.ar    1  LIG1        0.1427
     28 C           7.3654    1.6287    7.8785 C.2     1  LIG1        0.3497
     29 C           8.6614    1.2420    9.8176 C.3     1  LIG1        0.0820
     30 H           9.4568    1.5656    9.3874 H       1  LIG1        0.0661
     31 H           8.8883    0.5211   10.4091 H       1  LIG1        0.0661
     32 H           8.2577    1.9533   10.3206 H       1  LIG1        0.0661
     33 H           6.6549    3.4166    6.1334 H       1  LIG1        0.2986
     34 S           8.3102   -1.9305   12.3967 S.O2    2  LIG2        0.1797
     35 S           4.8399   -7.4896   10.1105 S.2     2  LIG2       -0.0539
     36 N           7.4999   -3.2689   11.8777 N.2     2  LIG2        0.0960
     37 N           6.8525   -5.3526   12.7199 N.pl3   2  LIG2       -0.1971
     38 N           4.6199   -5.4877    8.3005 N.pl3   2  LIG2        0.0634
     39 O           9.4808   -1.7263   11.5944 O.2     2  LIG2       -0.1251
     40 O           7.4005   -0.8323   12.5161 O.2     2  LIG2       -0.1251
     41 O           4.8897   -4.3648    7.8996 O.2     2  LIG2       -0.1256
     42 O           3.9227   -6.2938    7.6905 O.2     2  LIG2       -0.1256
     43 O           6.1298   -7.8759   13.7643 O.2     2  LIG2       -0.2442
     44 O           5.3843   -9.3396   12.2182 O.3     2  LIG2       -0.4640
     45 C           8.7385   -2.5666   13.9839 C.ar    2  LIG2        0.1495
     46 C           9.4753   -1.9778   15.0015 C.ar    2  LIG2       -0.0320
     47 H           9.8229   -1.1201   14.9163 H       2  LIG2        0.0638
     48 C           9.6692   -2.7249   16.1486 C.ar    2  LIG2       -0.0598
     49 H          10.1651   -2.3673   16.8492 H       2  LIG2        0.0618
     50 C           9.1348   -3.9985   16.2680 C.ar    2  LIG2       -0.0608
     51 H           9.2779   -4.4775   17.0512 H       2  LIG2        0.0618
     52 C           8.3871   -4.5790   15.2430 C.ar    2  LIG2       -0.0448
     53 H           8.0286   -5.4324   15.3306 H       2  LIG2        0.0627
     54 C           8.2011   -3.8346   14.0890 C.ar    2  LIG2        0.0966
     55 C           7.4833   -4.1715   12.8266 C.2     2  LIG2        0.3512
     56 C           6.1481   -5.8316   11.6091 C.ar    2  LIG2        0.1422
     57 C           5.8308   -5.0950   10.4331 C.ar    2  LIG2        0.0214
     58 H           6.0606   -4.2079   10.2720 H       2  LIG2        0.0687
     59 C           5.1348   -5.9017    9.5815 C.ar    2  LIG2        0.1681
     60 C           5.6733   -7.1299   11.5702 C.ar    2  LIG2        0.1427
     61 C           5.7628   -8.1345   12.6459 C.2     2  LIG2        0.3497
     62 C           5.2789  -10.3842   13.2163 C.3     2  LIG2        0.0820
     63 H           6.0973  -10.4336   13.7161 H       2  LIG2        0.0661
     64 H           5.1158  -11.2248   12.7843 H       2  LIG2        0.0661
     65 H           4.5525  -10.1849   13.8120 H       2  LIG2        0.0661
     66 H           7.0101   -5.9379   13.2989 H       2  LIG2        0.2986
@<TRIPOS>BOND
     1     7     1    2
     2    14    13    1
     3     6     1    2
     4     1    12    1
     5     1     3    1
     6    13    12   ar
     7    13    15   ar
     8    12    21   ar
     9    16    15    1
    10     3    22    2
    11    15    17   ar
    12    21    22    1
    13    21    19   ar
    14    22     4    1
    15    25    24    1
    16    17    19   ar
    17    17    18    1
    18     8     5    2
    19    19    20    1
    20    24    26   ar
    21    24    23   ar
    22     5    26    1
    23     5     9    2
    24     4    23    1
    25     4    33    1
    26    26     2   ar
    27    23    27   ar
    28    27     2   ar
    29    27    28    1
    30    42    38    2
    31    10    28    2
    32    28    11    1
    33    41    38    2
    34    38    59    1
    35    11    29    1
    36    30    29    1
    37    59    35   ar
    38    59    57   ar
    39    29    32    1
    40    29    31    1
    41    35    60   ar
    42    58    57    1
    43    57    56   ar
    44    60    56   ar
    45    60    61    1
    46    39    34    2
    47    56    37    1
    48    36    34    1
    49    36    55    2
    50    44    61    1
    51    44    62    1
    52    34    40    2
    53    34    45    1
    54    61    43    2
    55    37    55    1
    56    37    66    1
    57    64    62    1
    58    55    54    1
    59    62    63    1
    60    62    65    1
    61    45    54   ar
    62    45    46   ar
    63    54    52   ar
    64    47    46    1
    65    46    48   ar
    66    52    53    1
    67    52    50   ar
    68    48    50   ar
    69    48    49    1
    70    50    51    1
