@<TRIPOS>MOLECULE
4'-Methyl-1<i>H</i>-14',19'-dioxa-4'-azaspiro[indole-3,5'- tetracyclo[18.4.0.0^2,6^.0^8,13^]tetracosane]-1'(24'),8',10',12',20',22'- hexaene-2,7'(3<i>H</i>)-dione
 63 68 0 0 0
SMALL
GASTEIGER

@<TRIPOS>ATOM
      1 C           7.4238    9.3895    3.9144 C.3     1  LIG1        0.0075
      2 H           6.7193    8.8670    4.3282 H       1  LIG1        0.0433
      3 H           8.2211    8.8431    3.8324 H       1  LIG1        0.0433
      4 C           6.9848    9.9378    2.5591 C.3     1  LIG1        0.0127
      5 H           7.7610   10.3737    2.1495 H       1  LIG1        0.0370
      6 C           6.0176   11.0363    3.0066 C.3     1  LIG1        0.0614
      7 H           5.1688   10.6062    3.2409 H       1  LIG1        0.0414
      8 C           6.6524   11.5946    4.3390 C.3     1  LIG1        0.1363
      9 C           5.5336   11.7108    5.4015 C.2     1  LIG1        0.2429
     10 C           6.3630   13.8132    5.0956 C.ar    1  LIG1        0.0389
     11 C           6.5408   15.1736    5.1944 C.ar    1  LIG1       -0.0401
     12 H           5.9936   15.6958    5.7346 H       1  LIG1        0.0636
     13 C           7.5734   15.7373    4.4540 C.ar    1  LIG1       -0.0600
     14 H           7.7191   16.6554    4.4971 H       1  LIG1        0.0618
     15 C           8.3859   14.9591    3.6575 C.ar    1  LIG1       -0.0613
     16 H           9.0747   15.3576    3.1757 H       1  LIG1        0.0618
     17 C           8.1896   13.5878    3.5645 C.ar    1  LIG1       -0.0545
     18 H           8.7399   13.0656    3.0268 H       1  LIG1        0.0622
     19 C           7.1599   13.0151    4.2869 C.ar    1  LIG1        0.0036
     20 C           7.9776   10.4173    6.0811 C.3     1  LIG1       -0.0115
     21 H           7.2370    9.9747    6.5016 H       1  LIG1        0.0391
     22 H           8.1175   11.2721    6.4950 H       1  LIG1        0.0391
     23 H           8.7683    9.8817    6.1786 H       1  LIG1        0.0391
     24 C           5.7213   12.0986    1.9672 C.2     1  LIG1        0.1729
     25 C           4.7413   13.1923    2.2714 C.ar    1  LIG1        0.0594
     26 C           5.0143   14.4556    1.7581 C.ar    1  LIG1       -0.0477
     27 H           5.7781   14.5821    1.2442 H       1  LIG1        0.0626
     28 C           4.1761   15.5224    1.9953 C.ar    1  LIG1       -0.0609
     29 H           4.3606   16.3563    1.6271 H       1  LIG1        0.0618
     30 C           3.0598   15.3405    2.7865 C.ar    1  LIG1       -0.0583
     31 H           2.5102   16.0664    2.9750 H       1  LIG1        0.0619
     32 C           2.7508   14.1067    3.2984 C.ar    1  LIG1       -0.0192
     33 H           1.9927   13.9959    3.8258 H       1  LIG1        0.0654
     34 C           3.5762   13.0204    3.0244 C.ar    1  LIG1        0.1310
     35 C           2.0244   11.3978    3.9451 C.3     1  LIG1        0.0897
     36 H           1.3161   11.6972    3.3538 H       1  LIG1        0.0696
     37 H           1.8942   11.8047    4.8161 H       1  LIG1        0.0696
     38 C           2.0130    9.9119    4.0589 C.3     1  LIG1       -0.0156
     39 H           2.8331    9.6343    4.4957 H       1  LIG1        0.0299
     40 H           1.2761    9.6566    4.6366 H       1  LIG1        0.0299
     41 C           1.8865    9.1573    2.7836 C.3     1  LIG1       -0.0156
     42 H           1.7211    8.2285    3.0082 H       1  LIG1        0.0299
     43 H           1.0944    9.4838    2.3276 H       1  LIG1        0.0299
     44 C           2.9921    9.1870    1.8212 C.3     1  LIG1        0.0897
     45 H           2.7824    8.5967    1.0794 H       1  LIG1        0.0696
     46 H           3.0812   10.0856    1.4689 H       1  LIG1        0.0696
     47 C           5.2203    8.3163    1.5465 C.ar    1  LIG1        0.1240
     48 C           4.9474    7.2399    0.7075 C.ar    1  LIG1       -0.0197
     49 H           4.0903    6.8801    0.6819 H       1  LIG1        0.0654
     50 C           5.9361    6.7039   -0.0843 C.ar    1  LIG1       -0.0583
     51 H           5.7482    5.9774   -0.6328 H       1  LIG1        0.0619
     52 C           7.1994    7.2400   -0.0655 C.ar    1  LIG1       -0.0613
     53 H           7.8657    6.8855   -0.6088 H       1  LIG1        0.0618
     54 C           7.4748    8.3086    0.7650 C.ar    1  LIG1       -0.0548
     55 H           8.3317    8.6696    0.7670 H       1  LIG1        0.0622
     56 C           6.5042    8.8633    1.6023 C.ar    1  LIG1       -0.0007
     57 N           7.6906   10.6051    4.6647 N.3     1  LIG1       -0.2872
     58 N           5.4131   13.0101    5.7481 N.am    1  LIG1       -0.2834
     59 H           4.8262   13.3098    6.3009 H       1  LIG1        0.1549
     60 O           6.2961   12.0861    0.9011 O.2     1  LIG1       -0.2915
     61 O           4.8867   10.7762    5.8523 O.2     1  LIG1       -0.2730
     62 O           3.2992   11.7521    3.4149 O.3     1  LIG1       -0.4913
     63 O           4.2316    8.7876    2.3979 O.3     1  LIG1       -0.4917
@<TRIPOS>BOND
     1    51    50    1
     2    53    52    1
     3    50    52   ar
     4    50    48   ar
     5    52    54   ar
     6    49    48    1
     7    48    47   ar
     8    54    55    1
     9    54    56   ar
    10    60    24    2
    11    45    44    1
    12    27    26    1
    13    46    44    1
    14    47    56   ar
    15    47    63    1
    16    56     4    1
    17    29    28    1
    18    26    28   ar
    19    26    25   ar
    20    44    63    1
    21    44    41    1
    22    24    25    1
    23    24     6    1
    24    28    30   ar
    25     5     4    1
    26    25    34   ar
    27    43    41    1
    28     4     6    1
    29     4     1    1
    30    41    42    1
    31    41    38    1
    32    30    31    1
    33    30    32   ar
    34     6     7    1
    35     6     8    1
    36    34    32   ar
    37    34    62    1
    38    18    17    1
    39    16    15    1
    40    32    33    1
    41    36    35    1
    42    62    35    1
    43    17    15   ar
    44    17    19   ar
    45    15    13   ar
    46     3     1    1
    47     1     2    1
    48     1    57    1
    49    35    38    1
    50    35    37    1
    51    38    39    1
    52    38    40    1
    53    19     8    1
    54    19    10   ar
    55     8    57    1
    56     8     9    1
    57    13    14    1
    58    13    11   ar
    59    57    20    1
    60    10    11   ar
    61    10    58    1
    62    11    12    1
    63     9    58   am
    64     9    61    2
    65    58    59    1
    66    20    23    1
    67    20    22    1
    68    20    21    1
