@<TRIPOS>MOLECULE
(<i>E</i>)-1-(4-Decyloxyphenyl)-3-(2-hydroxyphenyl)prop-2-en-1-one
 60 61 0 0 0
SMALL
GASTEIGER

@<TRIPOS>ATOM
      1 O          10.7477    8.6315    5.7323 O.3     1  LIG1       -0.5062
      2 O           9.4894    4.6640    3.3017 O.2     1  LIG1       -0.2873
      3 O           6.0294    2.6185   -1.5112 O.3     1  LIG1       -0.4920
      4 C           8.8149    9.8400    2.9161 C.ar    1  LIG1       -0.0511
      5 H           8.3352    9.4989    2.1960 H       1  LIG1        0.0625
      6 C           8.8767   11.2076    3.0983 C.ar    1  LIG1       -0.0610
      7 H           8.4358   11.7765    2.5095 H       1  LIG1        0.0618
      8 C           9.6011   11.7332    4.1669 C.ar    1  LIG1       -0.0583
      9 H           9.6535   12.6548    4.2833 H       1  LIG1        0.0619
     10 C          10.2429   10.8878    5.0560 C.ar    1  LIG1       -0.0196
     11 H          10.7242   11.2395    5.7693 H       1  LIG1        0.0654
     12 C          10.1650    9.5028    4.8779 C.ar    1  LIG1        0.1240
     13 C           9.4582    8.9554    3.7900 C.ar    1  LIG1        0.0165
     14 C           9.4091    7.5074    3.6280 C.2     1  LIG1       -0.0475
     15 H           9.8056    6.9953    4.2956 H       1  LIG1        0.0626
     16 C           8.8466    6.8424    2.6078 C.2     1  LIG1       -0.0137
     17 H           8.4310    7.3306    1.9339 H       1  LIG1        0.0656
     18 C           8.8580    5.3752    2.5077 C.2     1  LIG1        0.1861
     19 C           8.0907    4.7284    1.4127 C.ar    1  LIG1        0.0219
     20 C           8.2122    3.3356    1.2523 C.ar    1  LIG1       -0.0475
     21 H           8.7709    2.8560    1.8208 H       1  LIG1        0.0626
     22 C           7.5159    2.6696    0.2645 C.ar    1  LIG1       -0.0193
     23 H           7.6111    1.7498    0.1691 H       1  LIG1        0.0654
     24 C           6.6663    3.3759   -0.5951 C.ar    1  LIG1        0.1205
     25 C           6.5357    4.7625   -0.4643 C.ar    1  LIG1       -0.0193
     26 H           5.9801    5.2393   -1.0381 H       1  LIG1        0.0654
     27 C           7.2472    5.4186    0.5344 C.ar    1  LIG1       -0.0475
     28 H           7.1598    6.3408    0.6204 H       1  LIG1        0.0626
     29 C           5.2110    3.2291   -2.5213 C.3     1  LIG1        0.0896
     30 H           5.7398    3.8180   -3.0817 H       1  LIG1        0.0696
     31 H           4.4926    3.7413   -2.1187 H       1  LIG1        0.0696
     32 C           4.6577    2.0731   -3.3283 C.3     1  LIG1       -0.0186
     33 H           4.0989    1.5317   -2.7492 H       1  LIG1        0.0298
     34 H           5.3979    1.5186   -3.6226 H       1  LIG1        0.0298
     35 C           3.8402    2.4804   -4.5508 C.3     1  LIG1       -0.0500
     36 H           3.0419    2.9520   -4.2654 H       1  LIG1        0.0266
     37 H           4.3632    3.0792   -5.1064 H       1  LIG1        0.0266
     38 C           3.4453    1.2493   -5.3570 C.3     1  LIG1       -0.0530
     39 H           3.0147    0.6178   -4.7604 H       1  LIG1        0.0265
     40 H           4.2534    0.8294   -5.6909 H       1  LIG1        0.0265
     41 C           2.5151    1.5057   -6.5364 C.3     1  LIG1       -0.0531
     42 H           1.7199    1.9639   -6.2228 H       1  LIG1        0.0265
     43 H           2.9610    2.0828   -7.1758 H       1  LIG1        0.0265
     44 C           2.1096    0.2098   -7.2256 C.3     1  LIG1       -0.0531
     45 H           1.7249   -0.3856   -6.5633 H       1  LIG1        0.0265
     46 H           2.9081   -0.2174   -7.5733 H       1  LIG1        0.0265
     47 C           1.1128    0.3769   -8.3648 C.3     1  LIG1       -0.0531
     48 H           1.5379    0.8659   -9.0873 H       1  LIG1        0.0265
     49 H           0.3612    0.9041   -8.0515 H       1  LIG1        0.0265
     50 C           0.5960   -0.9532   -8.9028 C.3     1  LIG1       -0.0533
     51 H           1.3523   -1.4919   -9.1825 H       1  LIG1        0.0265
     52 H           0.1459   -1.4270   -8.1859 H       1  LIG1        0.0265
     53 C          -0.3636   -0.8116  -10.0731 C.3     1  LIG1       -0.0559
     54 H           0.1191   -0.4559  -10.8354 H       1  LIG1        0.0263
     55 H          -1.0562   -0.1748   -9.8376 H       1  LIG1        0.0263
     56 C          -1.0176   -2.1305  -10.4718 C.3     1  LIG1       -0.0653
     57 H          -1.6427   -1.9756  -11.1837 H       1  LIG1        0.0230
     58 H          -1.4795   -2.5003   -9.7156 H       1  LIG1        0.0230
     59 H          -0.3429   -2.7466  -10.7671 H       1  LIG1        0.0230
     60 H          11.1811    9.0881    6.4356 H       1  LIG1        0.2922
@<TRIPOS>BOND
     1    57    56    1
     2    54    53    1
     3    59    56    1
     4    56    53    1
     5    56    58    1
     6    53    55    1
     7    53    50    1
     8    51    50    1
     9    48    47    1
    10    50    47    1
    11    50    52    1
    12    47    49    1
    13    47    44    1
    14    46    44    1
    15    44    45    1
    16    44    41    1
    17    43    41    1
    18    41    42    1
    19    41    38    1
    20    40    38    1
    21    38    39    1
    22    38    35    1
    23    37    35    1
    24    35    36    1
    25    35    32    1
    26    34    32    1
    27    32    33    1
    28    32    29    1
    29    30    29    1
    30    29    31    1
    31    29     3    1
    32     3    24    1
    33    26    25    1
    34    24    25   ar
    35    24    22   ar
    36    25    27   ar
    37    23    22    1
    38    22    20   ar
    39    27    28    1
    40    27    19   ar
    41    20    19   ar
    42    20    21    1
    43    19    18    1
    44    17    16    1
    45     5     4    1
    46    18    16    1
    47    18     2    2
    48     7     6    1
    49    16    14    2
    50     4     6   ar
    51     4    13   ar
    52     6     8   ar
    53    14    13    1
    54    14    15    1
    55    13    12   ar
    56     8     9    1
    57     8    10   ar
    58    12    10   ar
    59    12     1    1
    60    10    11    1
    61     1    60    1
