@<TRIPOS>MOLECULE
(<i>E</i>)-1-[(3-Iodophenyl)iminomethyl]naphthalen-2-ol
 32 34 0 0 0
SMALL
GASTEIGER

@<TRIPOS>ATOM
      1 I          -0.2154    2.5287    6.1306 I       1  LIG1       -0.0437
      2 C           2.5372    0.2434    8.5613 C.ar    1  LIG1        0.0648
      3 C           1.4071   -2.3402   10.9570 C.ar    1  LIG1        0.0422
      4 O           3.6667   -1.8408   11.5807 O.3     1  LIG1       -0.5061
      5 H           3.5782   -1.3385   10.9404 H       1  LIG1        0.2922
      6 C           2.5393   -2.5164   11.7721 C.ar    1  LIG1        0.1260
      7 C           1.4164   -4.1554   13.0785 C.ar    1  LIG1       -0.0505
      8 H           1.4249   -4.7608   13.7832 H       1  LIG1        0.0625
      9 N           2.5139   -0.7056    9.6046 N.2     1  LIG1       -0.2548
     10 C           3.7774    0.6785    8.1142 C.ar    1  LIG1       -0.0363
     11 H           4.5505    0.3252    8.4933 H       1  LIG1        0.0639
     12 C           1.4092    0.7714    7.9689 C.ar    1  LIG1       -0.0232
     13 H           0.5659    0.4888    8.2449 H       1  LIG1        0.0649
     14 C           1.4568   -1.3918    9.8898 C.2     1  LIG1        0.0394
     15 H           0.6918   -1.2616    9.3764 H       1  LIG1        0.0837
     16 C           3.8775    1.6216    7.1262 C.ar    1  LIG1       -0.0588
     17 H           4.7168    1.9042    6.8447 H       1  LIG1        0.0619
     18 C           2.7570    2.1534    6.5447 C.ar    1  LIG1       -0.0485
     19 H           2.8248    2.7966    5.8768 H       1  LIG1        0.0628
     20 C           1.5230    1.7092    6.9790 C.ar    1  LIG1        0.0154
     21 C           0.2241   -3.1353   11.2109 C.ar    1  LIG1       -0.0058
     22 C          -0.8974   -4.8189   12.5393 C.ar    1  LIG1       -0.0540
     23 H          -0.8917   -5.4160   13.2532 H       1  LIG1        0.0624
     24 C          -0.9402   -3.0540   10.4289 C.ar    1  LIG1       -0.0533
     25 H          -0.9730   -2.4641    9.7095 H       1  LIG1        0.0624
     26 C          -2.0174   -4.7182   11.7592 C.ar    1  LIG1       -0.0612
     27 H          -2.7621   -5.2438   11.9377 H       1  LIG1        0.0618
     28 C           2.5033   -3.4262   12.8429 C.ar    1  LIG1       -0.0189
     29 H           3.2485   -3.5196   13.3931 H       1  LIG1        0.0654
     30 C           0.2447   -4.0412   12.2891 C.ar    1  LIG1       -0.0170
     31 C          -2.0271   -3.8414   10.7178 C.ar    1  LIG1       -0.0611
     32 H          -2.7894   -3.7741   10.1897 H       1  LIG1        0.0618
@<TRIPOS>BOND
     1    19    18    1
     2     1    20    1
     3    18    20   ar
     4    18    16   ar
     5    17    16    1
     6    20    12   ar
     7    16    10   ar
     8    12    13    1
     9    12     2   ar
    10    10    11    1
    11    10     2   ar
    12     2     9    1
    13    15    14    1
    14     9    14    2
    15    25    24    1
    16    14     3    1
    17    32    31    1
    18    24    31   ar
    19    24    21   ar
    20    31    26   ar
    21     5     4    1
    22     3    21   ar
    23     3     6   ar
    24    21    30   ar
    25     4     6    1
    26    26    27    1
    27    26    22   ar
    28     6    28   ar
    29    30    22   ar
    30    30     7   ar
    31    22    23    1
    32    28     7   ar
    33    28    29    1
    34     7     8    1
