@<TRIPOS>MOLECULE
5''-(2,4-Dichlorobenzylidene)-1'-(2,4-dichlorophenyl)-1''-methyl- 1',2',3',5',6',7',8',8a'-octahydrodispiro[acenaphthylene-1,3'-indolizine- 2',3''-piperidine]-2,4''(1<i>H</i>)-dione
 75 82 0 0 0
SMALL
GASTEIGER

@<TRIPOS>ATOM
      1 C          -1.6443    7.7122    6.6837 C.3     1  LIG1       -0.0124
      2 H          -2.0702    7.1814    7.3602 H       1  LIG1        0.0391
      3 H          -2.1536    7.6647    5.8719 H       1  LIG1        0.0391
      4 H          -1.5931    8.6248    6.9768 H       1  LIG1        0.0391
      5 C           0.3612    7.9618    5.3902 C.3     1  LIG1        0.0271
      6 H           0.3649    8.9012    5.6291 H       1  LIG1        0.0477
      7 H          -0.1407    7.8651    4.5647 H       1  LIG1        0.0477
      8 C           1.7813    7.5027    5.1619 C.2     1  LIG1        0.0103
      9 C           2.5187    6.7909    6.2563 C.2     1  LIG1        0.1710
     10 C           1.6882    6.2609    7.4240 C.3     1  LIG1        0.0838
     11 C           0.5146    7.2150    7.6392 C.3     1  LIG1        0.0147
     12 H          -0.0110    6.9292    8.4031 H       1  LIG1        0.0437
     13 H           0.8417    8.1124    7.8102 H       1  LIG1        0.0437
     14 C           2.5663    6.0178    8.7000 C.3     1  LIG1        0.0175
     15 H           3.5038    6.1259    8.4341 H       1  LIG1        0.0375
     16 C           2.3574    4.5497    9.0434 C.3     1  LIG1        0.0195
     17 H           1.5438    4.4546    9.5818 H       1  LIG1        0.0469
     18 C           3.5038    3.8572    9.7418 C.3     1  LIG1       -0.0367
     19 H           3.6174    4.2267   10.6319 H       1  LIG1        0.0280
     20 H           4.3250    4.0021    9.2460 H       1  LIG1        0.0280
     21 C           3.2204    2.3705    9.8385 C.3     1  LIG1       -0.0505
     22 H           3.9819    1.9202   10.2366 H       1  LIG1        0.0266
     23 H           2.4518    2.2241   10.4104 H       1  LIG1        0.0266
     24 C           2.9479    1.7864    8.4681 C.3     1  LIG1       -0.0401
     25 H           2.7120    0.8502    8.5555 H       1  LIG1        0.0278
     26 H           3.7497    1.8459    7.9245 H       1  LIG1        0.0278
     27 C           1.8187    2.5318    7.7876 C.3     1  LIG1        0.0004
     28 H           1.6910    2.1885    6.8887 H       1  LIG1        0.0427
     29 H           0.9942    2.4019    8.2817 H       1  LIG1        0.0427
     30 C           1.2009    4.8072    7.0092 C.3     1  LIG1        0.1258
     31 C          -0.3017    4.5717    7.4273 C.2     1  LIG1        0.1893
     32 C          -1.0407    4.1128    6.2465 C.ar    1  LIG1        0.0277
     33 C          -0.1347    4.0038    5.1993 C.ar    1  LIG1       -0.0019
     34 C           1.1741    4.3932    5.5414 C.ar    1  LIG1       -0.0103
     35 C           2.1660    4.2241    4.6311 C.ar    1  LIG1       -0.0557
     36 H           3.0451    4.4449    4.8385 H       1  LIG1        0.0621
     37 C           1.8305    3.7025    3.3527 C.ar    1  LIG1       -0.0608
     38 H           2.5048    3.5883    2.7217 H       1  LIG1        0.0618
     39 C           0.5548    3.3639    3.0188 C.ar    1  LIG1       -0.0540
     40 H           0.3737    3.0403    2.1669 H       1  LIG1        0.0624
     41 C          -0.4847    3.4966    3.9396 C.ar    1  LIG1       -0.0169
     42 C          -1.8526    3.1276    3.8008 C.ar    1  LIG1       -0.0540
     43 H          -2.1511    2.7833    2.9907 H       1  LIG1        0.0624
     44 C          -2.7284    3.2666    4.8242 C.ar    1  LIG1       -0.0605
     45 H          -3.6165    3.0258    4.6885 H       1  LIG1        0.0618
     46 C          -2.3547    3.7523    6.0710 C.ar    1  LIG1       -0.0506
     47 H          -2.9724    3.8307    6.7625 H       1  LIG1        0.0625
     48 C           2.4406    7.6315    4.0094 C.2     1  LIG1       -0.0455
     49 H           3.3012    7.2784    4.0027 H       1  LIG1        0.0628
     50 C           2.0114    8.2435    2.7591 C.ar    1  LIG1       -0.0062
     51 C           1.2476    9.3963    2.7033 C.ar    1  LIG1       -0.0518
     52 H           0.9554    9.7756    3.5003 H       1  LIG1        0.0624
     53 C           0.9013   10.0068    1.5180 C.ar    1  LIG1       -0.0427
     54 H           0.3907   10.7842    1.5144 H       1  LIG1        0.0632
     55 C           1.3278    9.4402    0.3391 C.ar    1  LIG1        0.0424
     56 C           2.1002    8.3182    0.3322 C.ar    1  LIG1       -0.0245
     57 H           2.3925    7.9508   -0.4691 H       1  LIG1        0.0647
     58 C           2.4406    7.7369    1.5351 C.ar    1  LIG1        0.0495
     59 C           2.3083    6.9760    9.8471 C.ar    1  LIG1       -0.0233
     60 C           1.4020    6.6973   10.8605 C.ar    1  LIG1       -0.0555
     61 H           0.9545    5.8819   10.8438 H       1  LIG1        0.0621
     62 C           1.1361    7.5753   11.8896 C.ar    1  LIG1       -0.0430
     63 H           0.5313    7.3479   12.5582 H       1  LIG1        0.0632
     64 C           1.7725    8.7835   11.9165 C.ar    1  LIG1        0.0424
     65 C           2.6977    9.1079   10.9624 C.ar    1  LIG1       -0.0248
     66 H           3.1455    9.9227   10.9938 H       1  LIG1        0.0647
     67 C           2.9553    8.2042    9.9494 C.ar    1  LIG1        0.0459
     68 N          -0.3023    7.2047    6.4439 N.3     1  LIG1       -0.3000
     69 N           2.1421    3.9518    7.7312 N.3     1  LIG1       -0.2820
     70 O           3.7105    6.5934    6.1863 O.2     1  LIG1       -0.2916
     71 O          -0.7244    4.6554    8.5558 O.2     1  LIG1       -0.2896
     72 CL          4.1268    8.6772    8.7627 Cl      1  LIG1       -0.0832
     73 CL          1.3748    9.9287   13.1578 Cl      1  LIG1       -0.0835
     74 CL          3.4853    6.3569    1.5013 Cl      1  LIG1       -0.0829
     75 CL          0.9095   10.1894   -1.1663 Cl      1  LIG1       -0.0835
@<TRIPOS>BOND
     1    75    55    1
     2    57    56    1
     3    56    55   ar
     4    56    58   ar
     5    55    53   ar
     6    74    58    1
     7    54    53    1
     8    53    51   ar
     9    58    50   ar
    10    40    39    1
    11    51    50   ar
    12    51    52    1
    13    38    37    1
    14    50    48    1
    15    43    42    1
    16    39    37   ar
    17    39    41   ar
    18    37    35   ar
    19    42    41   ar
    20    42    44   ar
    21    41    33   ar
    22    49    48    1
    23    48     8    2
    24     7     5    1
    25    35    36    1
    26    35    34   ar
    27    45    44    1
    28    44    46   ar
    29     8     5    1
    30     8     9    1
    31    33    34   ar
    32    33    32   ar
    33     5     6    1
    34     5    68    1
    35    34    30    1
    36     3     1    1
    37    46    32   ar
    38    46    47    1
    39    70     9    2
    40    32    31    1
    41     9    10    1
    42    68     1    1
    43    68    11    1
    44     1     4    1
    45     1     2    1
    46    28    27    1
    47    30    10    1
    48    30    31    1
    49    30    69    1
    50    10    11    1
    51    10    14    1
    52    31    71    2
    53    11    13    1
    54    11    12    1
    55    69    27    1
    56    69    16    1
    57    27    29    1
    58    27    24    1
    59    26    24    1
    60    15    14    1
    61    24    25    1
    62    24    21    1
    63    14    16    1
    64    14    59    1
    65    72    67    1
    66    16    17    1
    67    16    18    1
    68    20    18    1
    69    18    21    1
    70    18    19    1
    71    21    22    1
    72    21    23    1
    73    59    67   ar
    74    59    60   ar
    75    67    65   ar
    76    61    60    1
    77    60    62   ar
    78    65    66    1
    79    65    64   ar
    80    62    64   ar
    81    62    63    1
    82    64    73    1
