@<TRIPOS>MOLECULE
DL-tyrosinium chloride dihydrate
 32 29 0 0 0
SMALL
GASTEIGER

@<TRIPOS>ATOM
      1 CL          0.0780    1.7203    6.9892 Cl      1  LIG1        0.0000
      2 OXT         1.3332    6.6557    6.9673 O.3     1  TYR1       -0.4767
      3 OH          0.1806    2.0365   12.0348 O.3     1  TYR1       -0.5068
      4 O          -1.2532    7.3198    3.5302 O.3     2  HOH2       -0.4105
      5 H          -1.5465    6.5183    3.5025 H       0  HOH0        0.2052
      6 H          -0.6051    7.3336    3.0032 H       0  HOH0        0.2052
      7 O           0.5433    4.8287    5.9260 O.2     1  TYR1       -0.2446
      8 O           3.7017   -1.5621    3.9786 O.3     3  HOH3       -0.4105
      9 H           4.2006   -2.1768    3.6778 H       0  HOH0        0.2052
     10 H           3.7952   -1.5025    4.8049 H       0  HOH0        0.2052
     11 N           2.7550    3.4054    6.3231 N.4     1  TYR1        0.2290
     12 CD1         2.8173    2.8414    9.6010 C.ar    1  TYR1       -0.0549
     13 HD1         3.5757    2.4565    9.2246 H       1  TYR1        0.0621
     14 CE1         2.0753    2.1151   10.5252 C.ar    1  TYR1       -0.0199
     15 HE1         2.3317    1.2527   10.7593 H       1  TYR1        0.0654
     16 C           1.4212    5.4278    6.5147 C.2     1  TYR1        0.3539
     17 CZ          0.9444    2.6920   11.0974 C.ar    1  TYR1        0.1169
     18 CB          3.2755    4.9148    8.2302 C.3     1  TYR1        0.0259
     19 HB1         4.1911    4.5963    8.2718 H       1  TYR1        0.0374
     20 HB2         3.2780    5.8476    8.4960 H       1  TYR1        0.0374
     21 CD2         1.3039    4.6815    9.8050 C.ar    1  TYR1       -0.0549
     22 HD2         1.0378    5.5389    9.5629 H       1  TYR1        0.0621
     23 CA          2.7933    4.8225    6.7775 C.3     1  TYR1        0.0782
     24 HA          3.4415    5.2975    6.2173 H       1  TYR1        0.0971
     25 CE2         0.5519    3.9749   10.7335 C.ar    1  TYR1       -0.0199
     26 HE2        -0.2085    4.3570   11.1089 H       1  TYR1        0.0654
     27 CG          2.4506    4.1351    9.2254 C.ar    1  TYR1       -0.0413
     28 H1          3.4956    2.9536    6.5485 H       1  TYR1        0.2003
     29 H2          2.7130    3.3998    5.4041 H       1  TYR1        0.2003
     30 H3          2.0359    3.0091    6.6943 H       1  TYR1        0.2003
     31 HH          0.5879    1.3602   12.3124 H       1  TYR1        0.2921
     32 HXT         0.5554    7.0463    6.7625 H       1  TYR1        0.2953
@<TRIPOS>BOND
     1     6     4    1
     2     5     4    1
     3     9     8    1
     4     8    10    1
     5    29    11    1
     6     7    16    2
     7    24    23    1
     8    11    28    1
     9    11    30    1
    10    11    23    1
    11    16    23    1
    12    16     2    1
    13    32     2    1
    14    23    18    1
    15    18    19    1
    16    18    20    1
    17    18    27    1
    18    13    12    1
    19    27    12   ar
    20    27    21   ar
    21    22    21    1
    22    12    14   ar
    23    21    25   ar
    24    14    15    1
    25    14    17   ar
    26    25    17   ar
    27    25    26    1
    28    17     3    1
    29     3    31    1
