@<TRIPOS>MOLECULE
4-Bromo-2-{(<i>E</i>)-[(3,4-dimethylphenyl)imino]methyl}phenol
 32 33 0 0 0
SMALL
GASTEIGER

@<TRIPOS>ATOM
      1 BR          2.0858    3.9279    0.8295 Br      1  LIG1       -0.0503
      2 O          -0.6383    2.6616    6.0337 O.3     1  LIG1       -0.5061
      3 N           1.4184    3.6669    7.2685 N.2     1  LIG1       -0.2549
      4 C           2.0470    3.9849    8.5003 C.ar    1  LIG1        0.0641
      5 C           1.3124    3.7335    9.6513 C.ar    1  LIG1       -0.0332
      6 C           1.8026    3.9849   10.9188 C.ar    1  LIG1       -0.0455
      7 C           3.0944    4.5092   11.0496 C.ar    1  LIG1       -0.0474
      8 C           3.8182    4.7696    9.8920 C.ar    1  LIG1       -0.0566
      9 C           3.3258    4.5190    8.6368 C.ar    1  LIG1       -0.0361
     10 C           0.9619    3.6767   12.1392 C.3     1  LIG1       -0.0394
     11 C           3.7009    4.7636   12.4049 C.3     1  LIG1       -0.0395
     12 C           1.9559    3.8891    6.1316 C.2     1  LIG1        0.0389
     13 C           1.2902    3.5345    4.8904 C.ar    1  LIG1        0.0355
     14 C           0.0246    2.9249    4.8908 C.ar    1  LIG1        0.1255
     15 C          -0.5792    2.5912    3.6866 C.ar    1  LIG1       -0.0185
     16 C           0.0341    2.8792    2.4883 C.ar    1  LIG1       -0.0443
     17 C           1.2684    3.4949    2.4865 C.ar    1  LIG1        0.0187
     18 C           1.9038    3.8136    3.6667 C.ar    1  LIG1       -0.0357
     19 H          -0.1771    2.8831    6.6744 H       1  LIG1        0.2922
     20 H           0.4558    3.3814    9.5659 H       1  LIG1        0.0641
     21 H           4.6723    5.1287    9.9720 H       1  LIG1        0.0621
     22 H           3.8408    4.7030    7.8847 H       1  LIG1        0.0639
     23 H           1.4306    3.0559   12.7017 H       1  LIG1        0.0278
     24 H           0.1269    3.2922   11.8637 H       1  LIG1        0.0278
     25 H           0.7959    4.4873   12.6263 H       1  LIG1        0.0278
     26 H           3.1777    5.4194   12.8716 H       1  LIG1        0.0278
     27 H           4.5984    5.0870   12.2981 H       1  LIG1        0.0278
     28 H           3.7129    3.9464   12.9086 H       1  LIG1        0.0278
     29 H           2.7952    4.2884    6.0976 H       1  LIG1        0.0837
     30 H          -1.4076    2.1691    3.6893 H       1  LIG1        0.0654
     31 H          -0.3809    2.6596    1.6855 H       1  LIG1        0.0630
     32 H           2.7425    4.2153    3.6489 H       1  LIG1        0.0636
@<TRIPOS>BOND
     1     1    17    1
     2    31    16    1
     3    17    16   ar
     4    17    18   ar
     5    16    15   ar
     6    32    18    1
     7    18    13   ar
     8    15    30    1
     9    15    14   ar
    10    13    14   ar
    11    13    12    1
    12    14     2    1
    13     2    19    1
    14    29    12    1
    15    12     3    2
    16     3     4    1
    17    22     9    1
    18     4     9   ar
    19     4     5   ar
    20     9     8   ar
    21    20     5    1
    22     5     6   ar
    23     8    21    1
    24     8     7   ar
    25     6     7   ar
    26     6    10    1
    27     7    11    1
    28    24    10    1
    29    10    25    1
    30    10    23    1
    31    27    11    1
    32    11    26    1
    33    11    28    1
