@<TRIPOS>MOLECULE
<i>N</i>-(4-Methylphenylsulfonyl)maleamic acid
 29 29 0 0 0
SMALL
GASTEIGER

@<TRIPOS>ATOM
      1 C           3.3707    9.0322    1.0932 C.ar    1  LIG1        0.1086
      2 C           3.9499    8.2652    2.0819 C.ar    1  LIG1       -0.0348
      3 H           3.4684    7.5844    2.4936 H       1  LIG1        0.0637
      4 C           5.2594    8.5239    2.4534 C.ar    1  LIG1       -0.0570
      5 H           5.6521    8.0142    3.1253 H       1  LIG1        0.0621
      6 C           5.9907    9.5233    1.8447 C.ar    1  LIG1       -0.0503
      7 C           5.3977   10.2494    0.8280 C.ar    1  LIG1       -0.0570
      8 H           5.8899   10.9075    0.3926 H       1  LIG1        0.0621
      9 C           4.0923   10.0191    0.4453 C.ar    1  LIG1       -0.0348
     10 H           3.7042   10.5193   -0.2361 H       1  LIG1        0.0637
     11 C           0.9143   11.2568    1.4044 C.2     1  LIG1        0.2561
     12 C           0.0573   12.0211    2.3666 C.2     1  LIG1        0.0084
     13 H          -0.8013   12.2457    2.0874 H       1  LIG1        0.0672
     14 C           0.4186   12.4011    3.5756 C.2     1  LIG1        0.0273
     15 H          -0.1964   12.8672    4.0951 H       1  LIG1        0.0690
     16 C           1.7497   12.1231    4.1449 C.2     1  LIG1        0.3297
     17 C           7.3961    9.8430    2.2769 C.3     1  LIG1       -0.0397
     18 H           7.6875    9.1953    2.9222 H       1  LIG1        0.0278
     19 H           7.4198   10.7181    2.6685 H       1  LIG1        0.0278
     20 H           7.9784    9.8180    1.5140 H       1  LIG1        0.0278
     21 N           0.8278    9.8830    1.5502 N.am    1  LIG1       -0.1819
     22 H           0.5328    9.5751    2.2429 H       1  LIG1        0.1768
     23 O           1.2575    7.5204    1.1700 O.2     1  LIG1       -0.1499
     24 O           1.5078    9.1003   -0.7141 O.2     1  LIG1       -0.1499
     25 O           1.5497   11.7991    0.5349 O.2     1  LIG1       -0.2693
     26 O           2.5453   11.3572    3.6092 O.2     1  LIG1       -0.2458
     27 O           1.9948   12.7806    5.2395 O.3     1  LIG1       -0.4775
     28 H           2.8347   12.6208    5.5489 H       1  LIG1        0.2954
     29 S           1.6901    8.7807    0.6664 S.O2    1  LIG1        0.0746
@<TRIPOS>BOND
     1    24    29    2
     2    10     9    1
     3     8     7    1
     4     9     7   ar
     5     9     1   ar
     6    25    11    2
     7    29     1    1
     8    29    23    2
     9    29    21    1
    10     7     6   ar
    11     1     2   ar
    12    11    21   am
    13    11    12    1
    14    20    17    1
    15    21    22    1
    16     6    17    1
    17     6     4   ar
    18     2     4   ar
    19     2     3    1
    20    13    12    1
    21    17    19    1
    22    17    18    1
    23    12    14    2
    24     4     5    1
    25    14    15    1
    26    14    16    1
    27    26    16    2
    28    16    27    1
    29    27    28    1
