@<TRIPOS>MOLECULE
4-[(3<i>R</i>)-8,8-dimethyl-3,4-dihydro-2<i>H</i>-pyrano[2,3-<i>f</i>]chromen- 3-yl]benzene-1,3-diol
 44 47 0 0 0
SMALL
GASTEIGER

@<TRIPOS>ATOM
      1 O           4.9943    7.9590    5.0313 O.3     1  LIG1       -0.4815
      2 O           6.8770    9.7272    1.0640 O.3     1  LIG1       -0.4904
      3 C           5.8417    6.7677    4.9719 C.3     1  LIG1        0.1235
      4 C           7.0789    7.0716    4.1942 C.2     1  LIG1       -0.0408
      5 H           7.8582    6.6000    4.3824 H       1  LIG1        0.0611
      6 C           7.1001    7.9932    3.2465 C.2     1  LIG1       -0.0478
      7 H           7.8724    8.1255    2.7453 H       1  LIG1        0.0624
      8 C           5.9228    8.7959    2.9848 C.ar    1  LIG1        0.0584
      9 C           4.8779    8.7381    3.8978 C.ar    1  LIG1        0.1324
     10 C           3.7616    9.5211    3.7665 C.ar    1  LIG1       -0.0188
     11 H           3.0755    9.4754    4.3929 H       1  LIG1        0.0654
     12 C           3.6729   10.3837    2.6852 C.ar    1  LIG1       -0.0516
     13 H           2.9128   10.9118    2.5915 H       1  LIG1        0.0623
     14 C           4.6792   10.4843    1.7390 C.ar    1  LIG1       -0.0042
     15 C           5.7954    9.6799    1.9070 C.ar    1  LIG1        0.1343
     16 C           6.8436   10.6714   -0.0255 C.3     1  LIG1        0.0968
     17 H           6.4423   10.2465   -0.8006 H       1  LIG1        0.0703
     18 H           7.7515   10.9191   -0.2591 H       1  LIG1        0.0703
     19 C           6.0610   11.9246    0.3129 C.3     1  LIG1        0.0258
     20 H           6.4410   12.2918    1.1377 H       1  LIG1        0.0386
     21 C           4.6303   11.4899    0.6257 C.3     1  LIG1       -0.0141
     22 H           4.0998   12.2569    0.8933 H       1  LIG1        0.0321
     23 H           4.2226   11.0959   -0.1601 H       1  LIG1        0.0321
     24 C           6.1941   12.9832   -0.7503 C.ar    1  LIG1        0.0009
     25 C           7.3245   13.8063   -0.7703 C.ar    1  LIG1        0.1239
     26 C           7.4821   14.8096   -1.7095 C.ar    1  LIG1        0.0216
     27 H           8.2376   15.3512   -1.6897 H       1  LIG1        0.0691
     28 C           6.5169   15.0055   -2.6764 C.ar    1  LIG1        0.1203
     29 C           5.3923   14.2107   -2.6916 C.ar    1  LIG1       -0.0197
     30 H           4.7364   14.3382   -3.3394 H       1  LIG1        0.0654
     31 C           5.2463   13.2196   -1.7361 C.ar    1  LIG1       -0.0513
     32 H           4.4818   12.6912   -1.7550 H       1  LIG1        0.0623
     33 C           6.1562    6.4388    6.4176 C.3     1  LIG1       -0.0215
     34 H           6.6667    7.1535    6.8053 H       1  LIG1        0.0271
     35 H           6.6635    5.6244    6.4576 H       1  LIG1        0.0271
     36 H           5.3370    6.3294    6.9064 H       1  LIG1        0.0271
     37 C           5.0232    5.6701    4.3021 C.3     1  LIG1       -0.0215
     38 H           4.2149    5.5257    4.7995 H       1  LIG1        0.0271
     39 H           5.5350    4.8580    4.2791 H       1  LIG1        0.0271
     40 H           4.8046    5.9359    3.4069 H       1  LIG1        0.0271
     41 O           8.2678   13.5650    0.1932 O.3     1  LIG1       -0.5064
     42 H           8.7578   14.1926    0.2802 H       1  LIG1        0.2921
     43 O           6.7368   16.0026   -3.5765 O.3     1  LIG1       -0.5066
     44 H           6.1536   16.0490   -4.1485 H       1  LIG1        0.2921
@<TRIPOS>BOND
     1    44    43    1
     2    43    28    1
     3    30    29    1
     4    29    28   ar
     5    29    31   ar
     6    28    26   ar
     7    32    31    1
     8    31    24   ar
     9    26    27    1
    10    26    25   ar
    11    17    16    1
    12    25    24   ar
    13    25    41    1
    14    24    19    1
    15    18    16    1
    16    23    21    1
    17    16    19    1
    18    16     2    1
    19    41    42    1
    20    19    21    1
    21    19    20    1
    22    21    22    1
    23    21    14    1
    24     2    15    1
    25    14    15   ar
    26    14    12   ar
    27    15     8   ar
    28    13    12    1
    29    12    10   ar
    30     7     6    1
    31     8     6    1
    32     8     9   ar
    33     6     4    2
    34    40    37    1
    35    10     9   ar
    36    10    11    1
    37     9     1    1
    38     4     5    1
    39     4     3    1
    40    39    37    1
    41    37    38    1
    42    37     3    1
    43     3     1    1
    44     3    33    1
    45    33    35    1
    46    33    34    1
    47    33    36    1
