@<TRIPOS>MOLECULE
1-(1-Benzofuran-2-yl)ethanone <i>O</i>-(4-chlorobenzyl)oxime
 35 37 0 0 0
SMALL
GASTEIGER

@<TRIPOS>ATOM
      1 O           3.5226    0.2362   11.5426 O.2     1  LIG1       -0.4535
      2 C           2.2866    0.7622   11.1810 C.ar    1  LIG1        0.1531
      3 C           1.5181    1.0212   12.2651 C.ar    1  LIG1       -0.0068
      4 H           0.6399    1.3842   12.2630 H       1  LIG1        0.0662
      5 C           2.2840    0.6434   13.4164 C.ar    1  LIG1        0.0208
      6 C           2.0800    0.6338   14.8000 C.ar    1  LIG1       -0.0510
      7 H           1.2709    0.9651   15.1732 H       1  LIG1        0.0625
      8 C           3.0781    0.1337   15.6137 C.ar    1  LIG1       -0.0610
      9 H           2.9486    0.1195   16.5543 H       1  LIG1        0.0618
     10 C           4.2859   -0.3563   15.0735 C.ar    1  LIG1       -0.0582
     11 H           4.9534   -0.6981   15.6562 H       1  LIG1        0.0619
     12 C           4.5158   -0.3483   13.7106 C.ar    1  LIG1       -0.0187
     13 H           5.3265   -0.6748   13.3397 H       1  LIG1        0.0654
     14 C           3.5038    0.1603   12.9134 C.ar    1  LIG1        0.1357
     15 C           2.0225    0.9545    9.7632 C.2     1  LIG1        0.1190
     16 C           0.6031    1.1268    9.3063 C.3     1  LIG1       -0.0156
     17 H           0.5105    1.9853    8.8444 H       1  LIG1        0.0295
     18 H           0.0059    1.1080   10.0826 H       1  LIG1        0.0295
     19 H           0.3663    0.3988    8.6947 H       1  LIG1        0.0295
     20 N           3.0529    0.9654    8.9874 N.2     1  LIG1       -0.0859
     21 O           2.6494    1.1570    7.6490 O.2     1  LIG1       -0.3887
     22 C           3.8274    1.3183    6.8540 C.3     1  LIG1        0.1429
     23 H           4.3808    0.4995    6.9020 H       1  LIG1        0.0775
     24 H           4.3637    2.0772    7.1962 H       1  LIG1        0.0775
     25 C           3.4213    1.5789    5.4338 C.ar    1  LIG1       -0.0077
     26 C           2.1968    1.1580    4.9158 C.ar    1  LIG1       -0.0539
     27 H           1.5581    0.7523    5.4903 H       1  LIG1        0.0622
     28 C           1.9005    1.3248    3.5687 C.ar    1  LIG1       -0.0430
     29 H           1.0664    1.0334    3.2197 H       1  LIG1        0.0632
     30 C           2.8378    1.9217    2.7401 C.ar    1  LIG1        0.0410
     31 C           4.0515    2.3843    3.2336 C.ar    1  LIG1       -0.0430
     32 H           4.6783    2.8076    2.6601 H       1  LIG1        0.0632
     33 C           4.3282    2.2147    4.5793 C.ar    1  LIG1       -0.0539
     34 H           5.1511    2.5366    4.9290 H       1  LIG1        0.0622
     35 CL          2.4975    2.0663    1.0419 Cl      1  LIG1       -0.0835
@<TRIPOS>BOND
     1    35    30    1
     2    32    31    1
     3    30    31   ar
     4    30    28   ar
     5    29    28    1
     6    31    33   ar
     7    28    26   ar
     8    33    34    1
     9    33    25   ar
    10    26    25   ar
    11    26    27    1
    12    25    22    1
    13    22    23    1
    14    22    24    1
    15    22    21    1
    16    21    20    1
    17    19    16    1
    18    17    16    1
    19    20    15    2
    20    16    15    1
    21    16    18    1
    22    15     2    1
    23     2     1   ar
    24     2     3   ar
    25     1    14   ar
    26     4     3    1
    27     3     5   ar
    28    14     5   ar
    29    14    12   ar
    30    13    12    1
    31     5     6   ar
    32    12    10   ar
    33     6     7    1
    34     6     8   ar
    35    10     8   ar
    36    10    11    1
    37     8     9    1
