@<TRIPOS>MOLECULE
5-Amino-3-ethoxy-1,8,8-trimethyl-2-azabicyclo[2.2.2]octa-2,5-diene-4,6-dicarbonitrile
 74 76 0 0 0
SMALL
GASTEIGER

@<TRIPOS>ATOM
      1 O           5.8375   15.8771   11.2081 O.3     1  LIG1       -0.3519
      2 N           7.2444   15.8135    9.3639 N.3     1  LIG1       -0.1902
      3 N           6.9009   19.8730    9.8384 N.pl3   1  LIG1       -0.3591
      4 N           4.0425   18.7815   11.2328 N.1     1  LIG1       -0.1954
      5 N          10.0875   19.1681    7.8928 N.1     1  LIG1       -0.1911
      6 C           6.3510   16.3664   10.0722 C.3     1  LIG1        0.2066
      7 C           5.7539   17.6821    9.5921 C.3     1  LIG1        0.1482
      8 C           6.9351   18.6234    9.3449 C.2     1  LIG1        0.0418
      9 C           7.8669   18.0363    8.5486 C.2     1  LIG1        0.0688
     10 C           7.5240   16.6114    8.1267 C.3     1  LIG1        0.0734
     11 C           6.1901   16.6580    7.3435 C.3     1  LIG1       -0.0214
     12 H           5.9055   15.7364    7.1226 H       1  LIG1        0.0293
     13 H           6.3240   17.1489    6.4939 H       1  LIG1        0.0293
     14 C           5.0780   17.3569    8.1750 C.3     1  LIG1       -0.0049
     15 C           3.8875   16.4178    8.3826 C.3     1  LIG1       -0.0578
     16 H           3.5082   16.1737    7.5130 H       1  LIG1        0.0236
     17 H           3.2047   16.8705    8.9212 H       1  LIG1        0.0236
     18 H           4.1870   15.6084    8.8470 H       1  LIG1        0.0236
     19 C           4.6083   18.6628    7.5234 C.3     1  LIG1       -0.0578
     20 H           4.2191   18.4676    6.6448 H       1  LIG1        0.0236
     21 H           5.3724   19.2670    7.4148 H       1  LIG1        0.0236
     22 H           3.9335   19.0876    8.0926 H       1  LIG1        0.0236
     23 C           6.3837   14.5814   11.6207 C.3     1  LIG1        0.0474
     24 H           7.3436   14.6711   11.8467 H       1  LIG1        0.0558
     25 H           6.2950   13.9236   10.8863 H       1  LIG1        0.0558
     26 C           5.6091   14.1244   12.8226 C.3     1  LIG1       -0.0415
     27 H           5.9372   13.2468   13.1088 H       1  LIG1        0.0252
     28 H           4.6582   14.0588   12.5927 H       1  LIG1        0.0252
     29 H           5.7253   14.7691   13.5507 H       1  LIG1        0.0252
     30 C           4.7814   18.2674   10.5253 C.1     1  LIG1        0.0803
     31 C           9.0877   18.6644    8.1869 C.1     1  LIG1        0.0983
     32 C           8.6204   15.9320    7.3222 C.3     1  LIG1       -0.0403
     33 H           9.4461   15.9092    7.8495 H       1  LIG1        0.0251
     34 H           8.7759   16.4324    6.4939 H       1  LIG1        0.0251
     35 H           8.3467   15.0169    7.1046 H       1  LIG1        0.0251
     36 O           0.2024    8.9242    0.6830 O.3     2  LIG2       -0.3519
     37 N           1.6080    8.9666    2.5291 N.3     2  LIG2       -0.1902
     38 N           1.1219    4.8928    2.1361 N.pl3   2  LIG2       -0.3591
     39 N          -1.6734    6.0576    0.6852 N.1     2  LIG2       -0.1954
     40 N           4.3632    5.5515    3.9987 N.1     2  LIG2       -0.1911
     41 C           0.7011    8.4272    1.8251 C.3     2  LIG2        0.2066
     42 C           0.0619    7.1351    2.3132 C.3     2  LIG2        0.1482
     43 C           1.2086    6.1584    2.5849 C.2     2  LIG2        0.0418
     44 C           2.1639    6.7281    3.3610 C.2     2  LIG2        0.0688
     45 C           1.8614    8.1697    3.7680 C.3     2  LIG2        0.0734
     46 C           0.5227    8.1660    4.5510 C.3     2  LIG2       -0.0214
     47 H           0.6385    7.6684    5.3994 H       2  LIG2        0.0293
     48 H           0.2694    9.0964    4.7744 H       2  LIG2        0.0293
     49 C          -0.6095    7.5099    3.7196 C.3     2  LIG2       -0.0049
     50 C          -1.7594    8.4931    3.4753 C.3     2  LIG2       -0.0578
     51 H          -2.1667    8.7398    4.3325 H       2  LIG2        0.0236
     52 H          -2.4342    8.0718    2.9027 H       2  LIG2        0.0236
     53 H          -1.4139    9.2973    3.0344 H       2  LIG2        0.0236
     54 C          -1.1419    6.2446    4.3872 C.3     2  LIG2       -0.0578
     55 H          -1.5228    6.4715    5.2605 H       2  LIG2        0.0236
     56 H          -0.4085    5.6060    4.5073 H       2  LIG2        0.0236
     57 H          -1.8352    5.8441    3.8224 H       2  LIG2        0.0236
     58 C           0.7648   10.2140    0.2796 C.3     2  LIG2        0.0474
     59 H           1.7269   10.1156    0.0671 H       2  LIG2        0.0558
     60 H           0.6716   10.8713    1.0143 H       2  LIG2        0.0558
     61 C           0.0098   10.6821   -0.9350 C.3     2  LIG2       -0.0415
     62 H           0.3636   11.5476   -1.2262 H       2  LIG2        0.0252
     63 H          -0.9403   10.7748   -0.7137 H       2  LIG2        0.0252
     64 H           0.1136   10.0271   -1.6573 H       2  LIG2        0.0252
     65 C          -0.9233    6.5648    1.3872 C.1     2  LIG2        0.0803
     66 C           3.3704    6.0727    3.7200 C.1     2  LIG2        0.0983
     67 C           2.9703    8.8122    4.5796 C.3     2  LIG2       -0.0403
     68 H           3.8018    8.8047    4.0607 H       2  LIG2        0.0251
     69 H           3.0998    8.3102    5.4114 H       2  LIG2        0.0251
     70 H           2.7265    9.7370    4.7911 H       2  LIG2        0.0251
     71 H           6.3470   20.0616   10.5462 H       1  LIG1        0.1421
     72 H           7.5562   20.4270    9.7140 H       1  LIG1        0.1421
     73 H           1.8100    4.3211    2.2752 H       2  LIG2        0.1421
     74 H           0.5959    4.7233    1.4418 H       2  LIG2        0.1421
@<TRIPOS>BOND
     1    64    61    1
     2    62    61    1
     3    61    63    1
     4    61    58    1
     5    59    58    1
     6    58    36    1
     7    58    60    1
     8    36    41    1
     9    39    65    3
    10    65    42    1
    11    74    38    1
    12    41    42    1
    13    41    37    1
    14    38    73    1
    15    38    43    1
    16    42    43    1
    17    42    49    1
    18    37    45    1
    19    43    44    2
    20    52    50    1
    21    53    50    1
    22    44    66    1
    23    44    45    1
    24    50    49    1
    25    50    51    1
    26    49    54    1
    27    49    46    1
    28    66    40    3
    29    45    46    1
    30    45    67    1
    31    57    54    1
    32    68    67    1
    33    54    56    1
    34    54    55    1
    35    46    48    1
    36    46    47    1
    37    67    70    1
    38    67    69    1
    39    34    32    1
    40    13    11    1
    41    20    19    1
    42    35    32    1
    43    12    11    1
    44    32    33    1
    45    32    10    1
    46    11    10    1
    47    11    14    1
    48    21    19    1
    49    16    15    1
    50    19    22    1
    51    19    14    1
    52     5    31    3
    53    10     9    1
    54    10     2    1
    55    14    15    1
    56    14     7    1
    57    31     9    1
    58    15    18    1
    59    15    17    1
    60     9     8    2
    61     8     7    1
    62     8     3    1
    63     2     6    1
    64     7     6    1
    65     7    30    1
    66    72     3    1
    67     3    71    1
    68     6     1    1
    69    30     4    3
    70    25    23    1
    71     1    23    1
    72    23    24    1
    73    23    26    1
    74    28    26    1
    75    26    27    1
    76    26    29    1
