@<TRIPOS>MOLECULE
2-(2,4-Dichlorophenoxymethyl)-5-(4-methylphenyl)imidazo[2,1-<i>b</i>][1,3,4]thiadiazole
 38 41 0 0 0
SMALL
GASTEIGER

@<TRIPOS>ATOM
      1 CL          5.2099    2.5884    2.2658 Cl      1  LIG1       -0.0797
      2 CL          0.1229    2.0933    0.5844 Cl      1  LIG1       -0.0835
      3 S           6.8065    1.2065    5.8942 S.2     1  LIG1       -0.0295
      4 O           4.2673    1.4146    4.6775 O.3     1  LIG1       -0.4838
      5 C           3.2496    1.5453    3.7904 C.ar    1  LIG1        0.1394
      6 C           3.5733    2.1122    2.5574 C.ar    1  LIG1        0.0839
      7 C           2.6261    2.2907    1.5779 C.ar    1  LIG1       -0.0215
      8 H           2.8603    2.6647    0.7591 H       1  LIG1        0.0648
      9 C           1.3203    1.9056    1.8248 C.ar    1  LIG1        0.0426
     10 C           0.9800    1.3602    3.0378 C.ar    1  LIG1       -0.0398
     11 H           0.0985    1.1129    3.2013 H       1  LIG1        0.0633
     12 C           1.9311    1.1757    4.0187 C.ar    1  LIG1       -0.0171
     13 H           1.6892    0.8027    4.8361 H       1  LIG1        0.0655
     14 C           4.0306    0.6268    5.8259 C.3     1  LIG1        0.1395
     15 H           3.7108   -0.2531    5.5725 H       1  LIG1        0.0769
     16 H           3.3658    1.0463    6.3927 H       1  LIG1        0.0769
     17 C           5.3297    0.5187    6.5425 C.ar    1  LIG1        0.1395
     18 C           7.6268    0.6392    7.3241 C.ar    1  LIG1        0.1960
     19 C           7.3725   -0.4107    9.2358 C.ar    1  LIG1        0.0579
     20 H           7.0156   -0.8664    9.9636 H       1  LIG1        0.0853
     21 C           8.6666   -0.0128    9.0628 C.ar    1  LIG1        0.0920
     22 C           9.7804   -0.2113    9.9939 C.ar    1  LIG1        0.0019
     23 C          11.0419    0.2992    9.7575 C.ar    1  LIG1       -0.0523
     24 H          11.1972    0.7906    8.9828 H       1  LIG1        0.0624
     25 C          12.0752    0.0948   10.6460 C.ar    1  LIG1       -0.0582
     26 H          12.9095    0.4616   10.4597 H       1  LIG1        0.0620
     27 C          11.9107   -0.6395   11.8088 C.ar    1  LIG1       -0.0504
     28 C          10.6418   -1.1450   12.0547 C.ar    1  LIG1       -0.0582
     29 H          10.4890   -1.6364   12.8295 H       1  LIG1        0.0620
     30 C           9.5986   -0.9322   11.1677 C.ar    1  LIG1       -0.0523
     31 H           8.7581   -1.2794   11.3624 H       1  LIG1        0.0624
     32 C          13.0381   -0.8627   12.7698 C.3     1  LIG1       -0.0397
     33 H          13.8551   -0.9885   12.2822 H       1  LIG1        0.0278
     34 H          12.8582   -1.6441   13.2986 H       1  LIG1        0.0278
     35 H          13.1230   -0.1000   13.3469 H       1  LIG1        0.0278
     36 N           5.4141   -0.0738    7.6789 N.ar    1  LIG1       -0.1588
     37 N           6.7094    0.0045    8.1086 N.ar    1  LIG1       -0.2129
     38 N           8.8246    0.6495    7.8417 N.ar    1  LIG1       -0.2201
@<TRIPOS>BOND
     1     2     9    1
     2     8     7    1
     3     7     9   ar
     4     7     6   ar
     5     9    10   ar
     6     1     6    1
     7     6     5   ar
     8    10    11    1
     9    10    12   ar
    10     5    12   ar
    11     5     4    1
    12    12    13    1
    13     4    14    1
    14    15    14    1
    15    14    16    1
    16    14    17    1
    17     3    17   ar
    18     3    18   ar
    19    17    36   ar
    20    18    38   ar
    21    18    37   ar
    22    36    37   ar
    23    38    21   ar
    24    37    19   ar
    25    24    23    1
    26    21    19   ar
    27    21    22    1
    28    19    20    1
    29    23    22   ar
    30    23    25   ar
    31    22    30   ar
    32    26    25    1
    33    25    27   ar
    34    30    31    1
    35    30    28   ar
    36    27    28   ar
    37    27    32    1
    38    28    29    1
    39    33    32    1
    40    32    34    1
    41    32    35    1
