@<TRIPOS>MOLECULE
Methyl 3-(pyridin-4-ylmethylidene)dithiocarbazate
 44 44 0 0 0
SMALL
GASTEIGER

@<TRIPOS>ATOM
      1 S           1.7637   17.3825    8.8724 S.3     1  LIG1       -0.1047
      2 S           3.4579   17.4470   11.3882 S.2     1  LIG1       -0.0265
      3 S           7.3957   22.7764   11.2616 S.2     2  LIG2       -0.0265
      4 S           5.7810   22.7167    8.6999 S.3     2  LIG2       -0.1047
      5 N           2.1314   14.6796    9.0120 N.2     1  LIG1       -0.1890
      6 N           2.7129   15.2989   10.0873 N.am    1  LIG1       -0.2249
      7 H           3.0920   14.8325   10.7025 H       1  LIG1        0.1755
      8 N           5.8651   20.0080    9.0310 N.2     2  LIG2       -0.1890
      9 C           2.6843   16.6353   10.1719 C.2     1  LIG1        0.1258
     10 C           1.6510   12.6777    7.8306 C.ar    1  LIG1       -0.0026
     11 N           0.5511   11.2678    5.6763 N.ar    1  LIG1       -0.2632
     12 C           5.3013   18.0023    7.9038 C.ar    2  LIG2       -0.0026
     13 C           5.8679   18.7378    9.0332 C.2     2  LIG2        0.0528
     14 H           6.2305   18.2753    9.7541 H       2  LIG2        0.0851
     15 N           4.2580   16.5947    5.7200 N.ar    2  LIG2       -0.2632
     16 N           6.4516   20.6347   10.0952 N.am    2  LIG2       -0.2249
     17 H           6.7379   20.1796   10.7665 H       2  LIG2        0.1755
     18 C           4.7182   18.6679    6.8290 C.ar    2  LIG2       -0.0349
     19 H           4.6730   19.5974    6.8140 H       2  LIG2        0.0639
     20 C           6.5745   21.9774   10.0745 C.2     2  LIG2        0.1258
     21 C           2.2291   13.4113    8.9591 C.2     1  LIG1        0.0528
     22 H           2.6671   12.9504    9.6380 H       1  LIG1        0.0851
     23 C           1.7468   11.3096    7.7393 C.ar    1  LIG1       -0.0349
     24 H           2.1855   10.8277    8.4041 H       1  LIG1        0.0639
     25 C           5.3262   16.6230    7.8539 C.ar    2  LIG2       -0.0349
     26 H           5.6993   16.1364    8.5535 H       2  LIG2        0.0639
     27 C           0.9639   13.3308    6.8186 C.ar    1  LIG1       -0.0349
     28 H           0.8619   14.2543    6.8340 H       1  LIG1        0.0639
     29 C           1.1911   10.6498    6.6628 C.ar    1  LIG1        0.0282
     30 H           1.2689    9.7239    6.6259 H       1  LIG1        0.0830
     31 C           0.4369   12.5822    5.7921 C.ar    1  LIG1        0.0282
     32 H          -0.0345   13.0333    5.1291 H       1  LIG1        0.0830
     33 C           4.7982   15.9702    6.7655 C.ar    2  LIG2        0.0282
     34 H           4.8185   15.0407    6.7593 H       2  LIG2        0.0830
     35 C           4.2120   17.9259    5.7908 C.ar    2  LIG2        0.0282
     36 H           3.8089   18.3824    5.0891 H       2  LIG2        0.0830
     37 C           6.0870   24.4539    9.0030 C.3     2  LIG2       -0.0118
     38 H           5.7619   24.6898    9.8741 H       2  LIG2        0.0344
     39 H           5.6330   24.9789    8.3400 H       2  LIG2        0.0344
     40 H           7.0309   24.6251    8.9550 H       2  LIG2        0.0344
     41 C           1.9453   19.1245    9.2645 C.3     1  LIG1       -0.0118
     42 H           1.6446   19.2840   10.1622 H       1  LIG1        0.0344
     43 H           1.4201   19.6459    8.6535 H       1  LIG1        0.0344
     44 H           2.8690   19.3750    9.1871 H       1  LIG1        0.0344
@<TRIPOS>BOND
     1    36    35    1
     2    32    31    1
     3    11    31   ar
     4    11    29   ar
     5    15    35   ar
     6    15    33   ar
     7    35    18   ar
     8    31    27   ar
     9    30    29    1
    10    29    23   ar
    11    34    33    1
    12    33    25   ar
    13    19    18    1
    14    27    28    1
    15    27    10   ar
    16    18    12   ar
    17    23    10   ar
    18    23    24    1
    19    10    21    1
    20    25    12   ar
    21    25    26    1
    22    12    13    1
    23    39    37    1
    24    43    41    1
    25     4    37    1
    26     4    20    1
    27     1    41    1
    28     1     9    1
    29    40    37    1
    30    21     5    2
    31    21    22    1
    32    37    38    1
    33     5     6    1
    34     8    13    2
    35     8    16    1
    36    13    14    1
    37    44    41    1
    38    41    42    1
    39    20    16    1
    40    20     3    2
    41     6     9    1
    42     6     7    1
    43    16    17    1
    44     9     2    2
