@<TRIPOS>MOLECULE
3-Amino-1-(4-fluorophenyl)-8-methoxy-1<i>H</i>-benzo[<i>f</i>]chromene-2-carbonitrile
 41 44 0 0 0
SMALL
GASTEIGER

@<TRIPOS>ATOM
      1 F          -1.8356    5.3435   11.5339 F       1  LIG1       -0.2055
      2 O           3.6029    4.3136    6.3847 O.3     1  LIG1       -0.4410
      3 O          -3.2359    6.2300    3.2678 O.3     1  LIG1       -0.4951
      4 N           4.7647    2.9719    7.7049 N.pl3   1  LIG1       -0.3284
      5 N           2.3555    0.8962    9.4116 N.1     1  LIG1       -0.1910
      6 C           2.4337    4.7510    5.7660 C.ar    1  LIG1        0.1348
      7 C           2.6375    5.7695    4.8274 C.ar    1  LIG1       -0.0184
      8 H           3.4959    6.0844    4.6552 H       1  LIG1        0.0654
      9 C           1.5734    6.2951    4.1712 C.ar    1  LIG1       -0.0504
     10 H           1.7051    6.9881    3.5655 H       1  LIG1        0.0625
     11 C           0.2648    5.8021    4.3950 C.ar    1  LIG1       -0.0139
     12 C          -0.8484    6.3347    3.6955 C.ar    1  LIG1       -0.0122
     13 H          -0.7283    7.0374    3.0987 H       1  LIG1        0.0660
     14 C          -2.0942    5.8192    3.8969 C.ar    1  LIG1        0.1207
     15 C          -2.2794    4.7682    4.8065 C.ar    1  LIG1       -0.0194
     16 H          -3.1323    4.4187    4.9342 H       1  LIG1        0.0654
     17 C          -1.2339    4.2506    5.5060 C.ar    1  LIG1       -0.0502
     18 H          -1.3828    3.5564    6.1072 H       1  LIG1        0.0625
     19 C           0.0849    4.7561    5.3311 C.ar    1  LIG1       -0.0101
     20 C           1.1988    4.2376    6.0585 C.ar    1  LIG1        0.0152
     21 C           1.0111    3.2184    7.1539 C.3     1  LIG1        0.0529
     22 H           0.5217    2.4531    6.7862 H       1  LIG1        0.0456
     23 C           2.3605    2.7372    7.6399 C.2     1  LIG1        0.0980
     24 C           3.5332    3.2979    7.2726 C.2     1  LIG1        0.1985
     25 C          -3.1169    7.2755    2.3141 C.3     1  LIG1        0.0788
     26 H          -3.9829    7.4751    1.9499 H       1  LIG1        0.0660
     27 H          -2.5283    6.9988    1.6089 H       1  LIG1        0.0660
     28 H          -2.7607    8.0577    2.7403 H       1  LIG1        0.0660
     29 C           0.2112    3.7857    8.3270 C.ar    1  LIG1       -0.0345
     30 C           0.5151    5.0367    8.8276 C.ar    1  LIG1       -0.0549
     31 H           1.1956    5.5312    8.4310 H       1  LIG1        0.0621
     32 C          -0.1654    5.5689    9.9013 C.ar    1  LIG1       -0.0262
     33 H           0.0442    6.4149   10.2268 H       1  LIG1        0.0646
     34 C          -1.1529    4.8248   10.4748 C.ar    1  LIG1        0.1234
     35 C          -1.4736    3.5813   10.0357 C.ar    1  LIG1       -0.0262
     36 H          -2.1425    3.0882   10.4535 H       1  LIG1        0.0646
     37 C          -0.7839    3.0625    8.9506 C.ar    1  LIG1       -0.0549
     38 H          -0.9955    2.2123    8.6383 H       1  LIG1        0.0621
     39 C           2.3780    1.7133    8.6086 C.1     1  LIG1        0.1008
     40 H           4.8658    2.3670    8.3399 H       1  LIG1        0.1451
     41 H           5.3834    3.5291    7.4778 H       1  LIG1        0.1451
@<TRIPOS>BOND
     1    27    25    1
     2    26    25    1
     3    25    28    1
     4    25     3    1
     5    13    12    1
     6     3    14    1
     7    10     9    1
     8    12    14   ar
     9    12    11   ar
    10    14    15   ar
    11     9    11   ar
    12     9     7   ar
    13    11    19   ar
    14     8     7    1
    15    15    16    1
    16    15    17   ar
    17     7     6   ar
    18    19    17   ar
    19    19    20   ar
    20    17    18    1
    21     6    20   ar
    22     6     2    1
    23    20    21    1
    24     2    24    1
    25    22    21    1
    26    21    23    1
    27    21    29    1
    28    24    23    2
    29    24     4    1
    30    41     4    1
    31    23    39    1
    32     4    40    1
    33    29    30   ar
    34    29    37   ar
    35    31    30    1
    36    39     5    3
    37    38    37    1
    38    30    32   ar
    39    37    35   ar
    40    32    33    1
    41    32    34   ar
    42    35    36    1
    43    35    34   ar
    44    34     1    1
