@<TRIPOS>MOLECULE
4-(5-Chloropentanamido)benzenesulfonamide
 33 33 0 0 0
SMALL
GASTEIGER

@<TRIPOS>ATOM
      1 CL          8.4703    4.5948   -0.9198 Cl      1  LIG1       -0.1254
      2 S           0.4715    2.4838    7.7776 S.O2    1  LIG1        0.0559
      3 O           0.6452    1.5248    8.8330 O.2     1  LIG1       -0.1533
      4 O          -0.4789    2.2060    6.7396 O.2     1  LIG1       -0.1533
      5 O           5.1900    4.7962    3.5197 O.2     1  LIG1       -0.2755
      6 N           0.0276    3.8507    8.4638 N.3     1  LIG1       -0.2035
      7 N           5.7205    3.2439    5.0624 N.am    1  LIG1       -0.2855
      8 C           2.0328    2.6936    6.9872 C.ar    1  LIG1        0.1051
      9 C           3.2183    2.2666    7.5736 C.ar    1  LIG1       -0.0336
     10 C           4.4171    2.4618    6.9250 C.ar    1  LIG1       -0.0386
     11 C           4.4676    3.0833    5.6840 C.ar    1  LIG1        0.0335
     12 C           3.2681    3.4687    5.0805 C.ar    1  LIG1       -0.0386
     13 C           2.0775    3.2686    5.7371 C.ar    1  LIG1       -0.0336
     14 C           6.0223    4.0575    4.0199 C.2     1  LIG1        0.2172
     15 C           7.4576    4.0257    3.5577 C.3     1  LIG1        0.0243
     16 C           7.6480    4.6764    2.2014 C.3     1  LIG1       -0.0437
     17 C           9.0918    4.7245    1.7553 C.3     1  LIG1       -0.0391
     18 C           9.2928    5.4297    0.4421 C.3     1  LIG1        0.0226
     19 H          -0.1086    4.5045    7.8994 H       1  LIG1        0.1442
     20 H           3.2017    1.8494    8.4046 H       1  LIG1        0.0638
     21 H           0.4492    4.0199    9.2026 H       1  LIG1        0.1442
     22 H           6.4021    2.8387    5.4333 H       1  LIG1        0.1548
     23 H           5.2063    2.1729    7.3240 H       1  LIG1        0.0637
     24 H           3.2760    3.8602    4.2364 H       1  LIG1        0.0637
     25 H           1.2834    3.5281    5.3281 H       1  LIG1        0.0638
     26 H           7.7554    3.1038    3.5126 H       1  LIG1        0.0358
     27 H           8.0105    4.4847    4.2093 H       1  LIG1        0.0358
     28 H           7.1318    4.1848    1.5428 H       1  LIG1        0.0270
     29 H           7.2989    5.5808    2.2345 H       1  LIG1        0.0270
     30 H           9.6144    5.1737    2.4360 H       1  LIG1        0.0277
     31 H           9.4257    3.8167    1.6771 H       1  LIG1        0.0277
     32 H          10.2424    5.4844    0.2536 H       1  LIG1        0.0429
     33 H           8.9510    6.3345    0.5123 H       1  LIG1        0.0429
@<TRIPOS>BOND
     1     1    18    1
     2    32    18    1
     3    18    33    1
     4    18    17    1
     5    28    16    1
     6    31    17    1
     7    17    16    1
     8    17    30    1
     9    16    29    1
    10    16    15    1
    11    26    15    1
    12     5    14    2
    13    15    14    1
    14    15    27    1
    15    14     7   am
    16    24    12    1
    17     7    22    1
    18     7    11    1
    19    12    11   ar
    20    12    13   ar
    21    25    13    1
    22    11    10   ar
    23    13     8   ar
    24     4     2    2
    25    10    23    1
    26    10     9   ar
    27     8     9   ar
    28     8     2    1
    29     9    20    1
    30     2     6    1
    31     2     3    2
    32    19     6    1
    33     6    21    1
