@<TRIPOS>MOLECULE
2-Benzoyl-4-chlorophenyl benzoate
 37 39 0 0 0
SMALL
GASTEIGER

@<TRIPOS>ATOM
      1 CL         -1.7351    0.6134    5.6290 Cl      1  LIG1       -0.0835
      2 O           3.5593    3.0902    6.1766 O.3     1  LIG1       -0.4216
      3 O           4.2426    2.0105    8.0286 O.2     1  LIG1       -0.2445
      4 C           0.9378    0.4884    5.9953 C.ar    1  LIG1       -0.0290
      5 H           0.8266   -0.4349    6.0086 H       1  LIG1        0.0640
      6 C           2.3330    2.4213    6.1299 C.ar    1  LIG1        0.1428
      7 C           2.2148    1.0343    6.1180 C.ar    1  LIG1        0.0659
      8 C          -0.1637    1.3090    5.8546 C.ar    1  LIG1        0.0419
      9 C           3.4016    0.1120    6.1192 C.2     1  LIG1        0.1967
     10 C           4.4201    2.8663    7.2132 C.2     1  LIG1        0.3445
     11 C           5.5520    3.8244    7.1835 C.ar    1  LIG1        0.0594
     12 O           4.2773    0.2644    5.2926 O.2     1  LIG1       -0.2865
     13 C           3.4423   -0.9963    7.1073 C.ar    1  LIG1        0.0224
     14 C           1.2243    3.2326    6.0255 C.ar    1  LIG1       -0.0171
     15 H           1.3242    4.1568    6.0556 H       1  LIG1        0.0655
     16 C           5.6863    4.7797    6.1901 C.ar    1  LIG1       -0.0478
     17 H           5.0608    4.8253    5.5030 H       1  LIG1        0.0626
     18 C          -0.0333    2.6833    5.8766 C.ar    1  LIG1       -0.0399
     19 H          -0.7811    3.2300    5.7924 H       1  LIG1        0.0633
     20 C           2.7032   -0.9550    8.2782 C.ar    1  LIG1       -0.0509
     21 H           2.1154   -0.2497    8.4296 H       1  LIG1        0.0625
     22 C           6.4815    3.7706    8.2094 C.ar    1  LIG1       -0.0478
     23 H           6.3992    3.1297    8.8781 H       1  LIG1        0.0626
     24 C           7.5311    4.6694    8.2387 C.ar    1  LIG1       -0.0610
     25 H           8.1498    4.6395    8.9324 H       1  LIG1        0.0618
     26 C           4.3108   -2.0640    6.8912 C.ar    1  LIG1       -0.0509
     27 H           4.8144   -2.1040    6.1108 H       1  LIG1        0.0625
     28 C           7.6615    5.6102    7.2403 C.ar    1  LIG1       -0.0617
     29 H           8.3717    6.2099    7.2584 H       1  LIG1        0.0618
     30 C           6.7455    5.6645    6.2184 C.ar    1  LIG1       -0.0610
     31 H           6.8389    6.2979    5.5446 H       1  LIG1        0.0618
     32 C           3.6943   -3.0068    9.0011 C.ar    1  LIG1       -0.0617
     33 H           3.7832   -3.6782    9.6396 H       1  LIG1        0.0618
     34 C           2.8344   -1.9566    9.2227 C.ar    1  LIG1       -0.0611
     35 H           2.3393   -1.9196   10.0095 H       1  LIG1        0.0618
     36 C           4.4209   -3.0643    7.8408 C.ar    1  LIG1       -0.0611
     37 H           4.9931   -3.7816    7.6907 H       1  LIG1        0.0618
@<TRIPOS>BOND
     1    12     9    2
     2    17    16    1
     3    31    30    1
     4     1     8    1
     5    19    18    1
     6     8    18   ar
     7     8     4   ar
     8    18    14   ar
     9     4     5    1
    10     4     7   ar
    11    14    15    1
    12    14     6   ar
    13    27    26    1
    14     7     9    1
    15     7     6   ar
    16     9    13    1
    17     6     2    1
    18     2    10    1
    19    16    30   ar
    20    16    11   ar
    21    30    28   ar
    22    26    13   ar
    23    26    36   ar
    24    13    20   ar
    25    11    10    1
    26    11    22   ar
    27    10     3    2
    28    28    29    1
    29    28    24   ar
    30    37    36    1
    31    36    32   ar
    32    22    24   ar
    33    22    23    1
    34    24    25    1
    35    20    21    1
    36    20    34   ar
    37    32    34   ar
    38    32    33    1
    39    34    35    1
