@<TRIPOS>MOLECULE
3-Acetyl-2-methyl-4-(pyridin-3-yl)-1,4-dihydroindeno[1,2-<i>b</i>]pyridin-5-one
 40 43 0 0 0
SMALL
GASTEIGER

@<TRIPOS>ATOM
      1 N           9.1612    0.5706    3.2219 N.pl3   1  LIG1       -0.3169
      2 H           8.8976    1.3842    3.1363 H       1  LIG1        0.1519
      3 O           8.6431   -3.0367    6.2343 O.2     1  LIG1       -0.2869
      4 C           9.1100   -1.4587    4.4643 C.2     1  LIG1        0.0335
      5 C           8.7844   -0.1546    4.3016 C.2     1  LIG1        0.0468
      6 C           8.8829   -4.6097    3.2603 C.ar    1  LIG1        0.0316
      7 H           9.4569   -4.8257    3.9597 H       1  LIG1        0.0832
      8 N           8.1153   -5.5839    2.7518 N.ar    1  LIG1       -0.2630
      9 C           8.8737   -3.3012    2.8087 C.ar    1  LIG1       -0.0172
     10 C          10.3349   -1.3140    2.3200 C.2     1  LIG1        0.0233
     11 C           7.9872   -2.9914    1.7925 C.ar    1  LIG1       -0.0548
     12 H           7.9386   -2.1239    1.4607 H       1  LIG1        0.0621
     13 C          11.1825   -1.9280    1.2663 C.2     1  LIG1        0.1585
     14 C           9.8150   -2.2534    3.4094 C.3     1  LIG1        0.0458
     15 H          10.5771   -2.7131    3.8182 H       1  LIG1        0.0450
     16 C           9.9765   -0.0041    2.2505 C.2     1  LIG1        0.0124
     17 C           8.5731   -1.9143    5.7426 C.2     1  LIG1        0.1925
     18 O          11.3291   -1.4271    0.1631 O.2     1  LIG1       -0.2926
     19 C          10.3938    0.9814    1.1996 C.3     1  LIG1       -0.0261
     20 H          11.2802    0.7711    0.8979 H       1  LIG1        0.0290
     21 H          10.3829    1.8675    1.5692 H       1  LIG1        0.0290
     22 H           9.7851    0.9356    0.4585 H       1  LIG1        0.0290
     23 C           7.1738   -3.9808    1.2737 C.ar    1  LIG1       -0.0433
     24 H           6.5673   -3.7844    0.5958 H       1  LIG1        0.0633
     25 C           7.9976    0.3504    5.4565 C.ar    1  LIG1        0.0073
     26 C           7.2707   -5.2538    1.7688 C.ar    1  LIG1        0.0276
     27 H           6.7271   -5.9161    1.4064 H       1  LIG1        0.0829
     28 C           7.8871   -0.7195    6.3533 C.ar    1  LIG1        0.0309
     29 C           7.4132    1.5631    5.7223 C.ar    1  LIG1       -0.0521
     30 H           7.4845    2.2730    5.1257 H       1  LIG1        0.0624
     31 C           6.6210    0.6496    7.8189 C.ar    1  LIG1       -0.0610
     32 H           6.1629    0.7678    8.6194 H       1  LIG1        0.0618
     33 C           6.7038    1.6939    6.9279 C.ar    1  LIG1       -0.0611
     34 H           6.2839    2.4998    7.1268 H       1  LIG1        0.0618
     35 C          11.8474   -3.2462    1.5583 C.3     1  LIG1       -0.0016
     36 H          11.1926   -3.9470    1.5320 H       1  LIG1        0.0309
     37 H          12.2485   -3.2159    2.4299 H       1  LIG1        0.0309
     38 H          12.5249   -3.4159    0.9000 H       1  LIG1        0.0309
     39 C           7.2130   -0.5847    7.5403 C.ar    1  LIG1       -0.0503
     40 H           7.1519   -1.2928    8.1407 H       1  LIG1        0.0625
@<TRIPOS>BOND
     1    18    13    2
     2    22    19    1
     3    24    23    1
     4    20    19    1
     5    38    35    1
     6    19    21    1
     7    19    16    1
     8    13    35    1
     9    13    10    1
    10    23    26   ar
    11    23    11   ar
    12    27    26    1
    13    12    11    1
    14    36    35    1
    15    35    37    1
    16    26     8   ar
    17    11     9   ar
    18    16    10    2
    19    16     1    1
    20    10    14    1
    21     8     6   ar
    22     9     6   ar
    23     9    14    1
    24     2     1    1
    25     1     5    1
    26     6     7    1
    27    14    15    1
    28    14     4    1
    29     5     4    2
    30     5    25    1
    31     4    17    1
    32    30    29    1
    33    25    29   ar
    34    25    28   ar
    35    29    33   ar
    36    17     3    2
    37    17    28    1
    38    28    39   ar
    39    33    34    1
    40    33    31   ar
    41    39    31   ar
    42    39    40    1
    43    31    32    1
