@<TRIPOS>MOLECULE
4-Benzyl-3-(thiophen-2-yl)-4,5-dihydro-1<i>H</i>-1,2,4-triazole-5-thione
 29 31 0 0 0
SMALL
GASTEIGER

@<TRIPOS>ATOM
      1 S           1.0216    4.8428    4.7055 S.2     1  LIG1       -0.0936
      2 S           2.5504    0.7535    9.5880 S.2     1  LIG1       -0.0114
      3 N           2.1667    2.5038    6.1315 N.ar    1  LIG1       -0.1528
      4 N           2.6236    1.5510    6.9886 N.ar    1  LIG1       -0.2539
      5 H           3.0737    0.8510    6.6934 H       1  LIG1        0.1910
      6 N           1.4769    2.8683    8.2080 N.ar    1  LIG1       -0.2984
      7 C          -0.0373    6.1651    4.7932 C.ar    1  LIG1       -0.0236
      8 H          -0.2296    6.7245    4.0754 H       1  LIG1        0.0693
      9 C          -0.5661    6.3107    6.0173 C.ar    1  LIG1       -0.0540
     10 H          -1.1644    6.9872    6.2393 H       1  LIG1        0.0623
     11 C          -0.1205    5.3326    6.9336 C.ar    1  LIG1       -0.0439
     12 H          -0.3981    5.2876    7.8200 H       1  LIG1        0.0630
     13 C           0.7650    4.4606    6.3675 C.ar    1  LIG1        0.0563
     14 C           1.4567    3.3037    6.8964 C.ar    1  LIG1        0.1695
     15 C           2.2243    1.7163    8.2526 C.ar    1  LIG1        0.1761
     16 C           0.9035    3.5066    9.3946 C.3     1  LIG1        0.0521
     17 H           1.0471    4.4637    9.3344 H       1  LIG1        0.0542
     18 H           1.3760    3.1871   10.1793 H       1  LIG1        0.0542
     19 C          -0.5698    3.2506    9.5800 C.ar    1  LIG1       -0.0276
     20 C          -1.1719    2.1085    9.1291 C.ar    1  LIG1       -0.0569
     21 H          -0.6670    1.4745    8.6726 H       1  LIG1        0.0621
     22 C          -2.5189    1.8803    9.3405 C.ar    1  LIG1       -0.0614
     23 H          -2.9158    1.1020    9.0235 H       1  LIG1        0.0618
     24 C          -3.2665    2.8060   10.0223 C.ar    1  LIG1       -0.0617
     25 H          -4.1746    2.6617   10.1609 H       1  LIG1        0.0618
     26 C          -2.6776    3.9364   10.4956 C.ar    1  LIG1       -0.0614
     27 H          -3.1812    4.5556   10.9719 H       1  LIG1        0.0618
     28 C          -1.3371    4.1707   10.2737 C.ar    1  LIG1       -0.0569
     29 H          -0.9460    4.9515   10.5918 H       1  LIG1        0.0621
@<TRIPOS>BOND
     1     8     7    1
     2     1     7   ar
     3     1    13   ar
     4     7     9   ar
     5     9    10    1
     6     9    11   ar
     7     3    14   ar
     8     3     4   ar
     9    13    14    1
    10    13    11   ar
    11     5     4    1
    12    14     6   ar
    13    11    12    1
    14     4    15   ar
    15     6    15   ar
    16     6    16    1
    17    15     2    2
    18    21    20    1
    19    23    22    1
    20    20    22   ar
    21    20    19   ar
    22    17    16    1
    23    22    24   ar
    24    16    19    1
    25    16    18    1
    26    19    28   ar
    27    24    25    1
    28    24    26   ar
    29    28    26   ar
    30    28    29    1
    31    26    27    1
