@<TRIPOS>MOLECULE
2-(1-Amino-4-<i>tert</i>-butylcyclohexyl)acetic acid hemihydrate
 79 78 0 0 0
SMALL
GASTEIGER

@<TRIPOS>ATOM
      1 H          -0.4555   -1.1617   -3.1676 H       1  LIG1        0.0323
      2 H           0.0896   -4.5506    1.6664 H       2  LIG2        0.2000
      3 H           1.6586   -4.8604    5.4356 H       2  LIG2        0.0306
      4 H          -0.2420   -2.6783   -2.7520 H       1  LIG1        0.0323
      5 H           2.9949   -0.3515   -3.9514 H       1  LIG1        0.0323
      6 H           1.8386   -5.3610    2.9873 H       2  LIG2        0.0323
      7 H          -0.0133   -2.3139    3.6060 H       2  LIG2        0.0323
      8 H          -0.0468   -3.8838    3.8850 H       2  LIG2        0.0323
      9 H           3.0072   -4.6376    2.1370 H       2  LIG2        0.0323
     10 H           2.9747   -2.4232    1.4842 H       2  LIG2        0.0438
     11 H           2.5003   -3.1622   -3.9571 H       1  LIG1        0.0438
     12 H           2.3787   -1.7322   -5.7487 H       1  LIG1        0.0270
     13 H          -0.2075   -0.3588   -5.5343 H       1  LIG1        0.0306
     14 H           1.1573   -3.9313    0.6453 H       2  LIG2        0.2000
     15 H           0.8413   -0.3129   -1.5791 H       1  LIG1        0.2000
     16 H           3.8287   -3.5296    4.0653 H       2  LIG2        0.0270
     17 H           1.5149    0.3154   -3.8679 H       1  LIG1        0.0323
     18 H           2.8547   -1.8573    2.9000 H       2  LIG2        0.0438
     19 H           1.9305   -2.0794    5.0067 H       2  LIG2        0.0270
     20 H          -0.0615   -3.0698    1.1995 H       2  LIG2        0.2000
     21 H           3.4250   -2.4954   -2.8184 H       1  LIG1        0.0438
     22 H           1.4994   -1.6378   -1.0647 H       1  LIG1        0.2000
     23 H          -1.1086   -2.5954   -4.9194 H       1  LIG1        0.0270
     24 H           0.4065   -3.1982   -5.0256 H       1  LIG1        0.0270
     25 H           3.7321   -5.0772    4.2855 H       2  LIG2        0.0270
     26 H           2.0691   -0.1999   -6.0467 H       1  LIG1        0.0270
     27 H           2.4505   -0.4890   -1.5677 H       1  LIG1        0.2000
     28 H           0.7335   -2.7297    5.8057 H       2  LIG2        0.0270
     29 H           1.5891    1.8412    0.5504 H       0  HOH0        0.2052
     30 H           2.2989    3.0857    0.4270 H       0  HOH0        0.2052
     31 H           0.4465   -3.5601   -7.2766 H       1  LIG1        0.0235
     32 H           0.4482   -2.8879   -8.7987 H       1  LIG1        0.0235
     33 H           2.4583   -4.0133    8.7057 H       2  LIG2        0.0235
     34 H           4.4585   -2.6197    6.1397 H       2  LIG2        0.0235
     35 H           4.3552   -2.7551    7.6808 H       2  LIG2        0.0235
     36 H           0.1201   -0.4783   -9.0131 H       1  LIG1        0.0235
     37 H          -1.7573   -2.5708   -6.9900 H       1  LIG1        0.0235
     38 H           3.2729   -1.8505    6.8135 H       2  LIG2        0.0235
     39 H           1.4873   -0.2674   -8.1838 H       1  LIG1        0.0235
     40 H          -1.7432   -1.7712   -8.4077 H       1  LIG1        0.0235
     41 H           4.2334   -5.2829    7.8042 H       2  LIG2        0.0235
     42 H           4.7049   -5.3478    6.2251 H       2  LIG2        0.0235
     43 H           1.7035   -2.6958   -7.7283 H       1  LIG1        0.0235
     44 H           3.3883   -5.9785    6.7945 H       2  LIG2        0.0235
     45 H          -0.0111    0.5295   -7.7358 H       1  LIG1        0.0235
     46 H          -2.0373   -0.8744   -7.1930 H       1  LIG1        0.0235
     47 H           1.5156   -3.0740    7.8194 H       2  LIG2        0.0235
     48 H           1.3939   -4.6284    7.7434 H       2  LIG2        0.0235
     49 N           0.6011   -3.7766    1.4268 N.4     2  LIG2        0.2233
     50 C           1.4777   -3.3637    2.5808 C.3     2  LIG2       -0.0031
     51 C           2.2820   -2.1332    2.1528 C.3     2  LIG2        0.0946
     52 C           1.5238   -0.9187    1.6504 C.2     2  LIG2        0.3616
     53 O           2.1960    0.1077    1.4022 O.co2   2  LIG2       -0.2461
     54 O           0.2839   -1.0031    1.5020 O.co2   2  LIG2       -0.2461
     55 C           2.4048   -4.5393    2.8884 C.3     2  LIG2       -0.0061
     56 C           3.1909   -4.3304    4.1843 C.3     2  LIG2       -0.0444
     57 C           2.2771   -4.1008    5.3804 C.3     2  LIG2       -0.0357
     58 C           0.5689   -3.1136    3.7907 C.3     2  LIG2       -0.0061
     59 C           1.3656   -2.9133    5.0795 C.3     2  LIG2       -0.0444
     60 C           3.9378   -5.1972    6.9216 C.3     2  LIG2       -0.0598
     61 C           1.9874   -3.9947    7.8693 C.3     2  LIG2       -0.0598
     62 C           3.8564   -2.7439    6.8347 C.3     2  LIG2       -0.0598
     63 C           3.0180   -4.0039    6.7417 C.3     2  LIG2       -0.0349
     64 N           1.5944   -0.9663   -1.6994 N.4     1  LIG1        0.2233
     65 C           1.5383   -1.5839   -3.0735 C.3     1  LIG1       -0.0031
     66 C           2.4754   -2.7969   -3.0663 C.3     1  LIG1        0.0946
     67 O           2.1957   -3.6077   -0.8573 O.co2   1  LIG1       -0.2461
     68 O           1.4837   -4.8855   -2.5310 O.co2   1  LIG1       -0.2461
     69 C           2.0173   -3.8694   -2.0738 C.2     1  LIG1        0.3616
     70 C           2.0179   -0.5239   -4.0687 C.3     1  LIG1       -0.0061
     71 C           1.7731   -0.9311   -5.5197 C.3     1  LIG1       -0.0444
     72 C           0.3044   -1.2426   -5.7958 C.3     1  LIG1       -0.0357
     73 C          -0.1367   -2.3569   -4.8332 C.3     1  LIG1       -0.0444
     74 C           0.0829   -1.9523   -3.3730 C.3     1  LIG1       -0.0061
     75 C           0.7121   -2.7576   -7.8049 C.3     1  LIG1       -0.0598
     76 C          -1.5066   -1.6843   -7.4732 C.3     1  LIG1       -0.0598
     77 C           0.4320   -0.3085   -8.1388 C.3     1  LIG1       -0.0598
     78 C          -0.0007   -1.5180   -7.2908 C.3     1  LIG1       -0.0349
     79 O           1.4937    2.6985    0.2972 O.3     3  HOH3       -0.4105
@<TRIPOS>BOND
     1    36    77    1
     2    32    75    1
     3    40    76    1
     4    39    77    1
     5    77    45    1
     6    77    78    1
     7    75    43    1
     8    75    78    1
     9    75    31    1
    10    76    78    1
    11    76    46    1
    12    76    37    1
    13    78    72    1
    14    26    71    1
    15    72    13    1
    16    72    71    1
    17    72    73    1
    18    12    71    1
    19    71    70    1
    20    24    73    1
    21    23    73    1
    22    73    74    1
    23    70     5    1
    24    70    17    1
    25    70    65    1
    26    11    66    1
    27    74     1    1
    28    74    65    1
    29    74     4    1
    30    65    66    1
    31    65    64    1
    32    66    21    1
    33    66    69    1
    34    68    69   ar
    35    69    67   ar
    36    64    15    1
    37    64    27    1
    38    64    22    1
    39    79    30    1
    40    79    29    1
    41    14    49    1
    42    20    49    1
    43    53    52   ar
    44    49     2    1
    45    49    50    1
    46    10    51    1
    47    54    52   ar
    48    52    51    1
    49     9    55    1
    50    51    50    1
    51    51    18    1
    52    50    55    1
    53    50    58    1
    54    55     6    1
    55    55    56    1
    56     7    58    1
    57    58     8    1
    58    58    59    1
    59    16    56    1
    60    56    25    1
    61    56    57    1
    62    19    59    1
    63    59    57    1
    64    59    28    1
    65    57     3    1
    66    57    63    1
    67    34    62    1
    68    42    60    1
    69    63    62    1
    70    63    60    1
    71    63    61    1
    72    44    60    1
    73    38    62    1
    74    62    35    1
    75    60    41    1
    76    48    61    1
    77    47    61    1
    78    61    33    1
