@<TRIPOS>MOLECULE
2-[3-(2-Acetoxyphenyl)quinoxalin-2-yl]phenyl acetate
 48 51 0 0 0
SMALL
GASTEIGER

@<TRIPOS>ATOM
      1 C           5.3340    2.0308    3.5402 C.ar    1  LIG1        0.1012
      2 C           6.7856    0.3637    4.1572 C.ar    1  LIG1        0.0899
      3 C           7.0501   -0.8282    4.8628 C.ar    1  LIG1       -0.0342
      4 H           6.3701   -1.2498    5.3366 H       1  LIG1        0.0639
      5 C           8.3039   -1.3597    4.8477 C.ar    1  LIG1       -0.0596
      6 H           8.4779   -2.1416    5.3197 H       1  LIG1        0.0618
      7 C           9.3264   -0.7415    4.1319 C.ar    1  LIG1       -0.0596
      8 H          10.1747   -1.1226    4.1280 H       1  LIG1        0.0618
      9 C           9.1081    0.4074    3.4408 C.ar    1  LIG1       -0.0342
     10 H           9.7980    0.8031    2.9597 H       1  LIG1        0.0639
     11 C           7.8254    0.9936    3.4595 C.ar    1  LIG1        0.0899
     12 C           6.4108    2.7121    2.8825 C.ar    1  LIG1        0.1012
     13 C           3.9482    2.5888    3.6058 C.ar    1  LIG1        0.0448
     14 C           3.3502    2.8006    4.8481 C.ar    1  LIG1       -0.0490
     15 H           3.8189    2.5849    5.6222 H       1  LIG1        0.0625
     16 C           2.0785    3.3223    4.9507 C.ar    1  LIG1       -0.0609
     17 H           1.6978    3.4599    5.7878 H       1  LIG1        0.0618
     18 C           1.3756    3.6380    3.8150 C.ar    1  LIG1       -0.0582
     19 H           0.5201    3.9970    3.8855 H       1  LIG1        0.0619
     20 C           1.9283    3.4255    2.5730 C.ar    1  LIG1       -0.0186
     21 H           1.4489    3.6323    1.8032 H       1  LIG1        0.0654
     22 C           3.2022    2.9003    2.4838 C.ar    1  LIG1        0.1408
     23 C           3.3899    1.6028    0.5363 C.2     1  LIG1        0.3092
     24 C           3.9869    1.5663   -0.8240 C.3     1  LIG1        0.0336
     25 H           3.7692    0.7328   -1.2465 H       1  LIG1        0.0342
     26 H           4.9407    1.6513   -0.7575 H       1  LIG1        0.0342
     27 H           3.6365    2.2905   -1.3469 H       1  LIG1        0.0342
     28 C           6.2673    4.0783    2.3027 C.ar    1  LIG1        0.0448
     29 C           5.7666    5.1274    3.0633 C.ar    1  LIG1       -0.0490
     30 H           5.4752    4.9641    3.9311 H       1  LIG1        0.0625
     31 C           5.6932    6.4093    2.5520 C.ar    1  LIG1       -0.0609
     32 H           5.3516    7.1006    3.0732 H       1  LIG1        0.0618
     33 C           6.1243    6.6599    1.2727 C.ar    1  LIG1       -0.0582
     34 H           6.0693    7.5205    0.9257 H       1  LIG1        0.0619
     35 C           6.6377    5.6412    0.4991 C.ar    1  LIG1       -0.0186
     36 H           6.9403    5.8140   -0.3638 H       1  LIG1        0.0654
     37 C           6.7007    4.3648    1.0154 C.ar    1  LIG1        0.1408
     38 C           8.4631    3.2202   -0.0609 C.2     1  LIG1        0.3092
     39 C           8.7861    1.9471   -0.7419 C.3     1  LIG1        0.0336
     40 H           9.7114    1.9475   -0.9974 H       1  LIG1        0.0342
     41 H           8.2374    1.8538   -1.5242 H       1  LIG1        0.0342
     42 H           8.6196    1.2147   -0.1447 H       1  LIG1        0.0342
     43 N           5.5236    0.8911    4.1758 N.ar    1  LIG1       -0.2429
     44 N           7.6191    2.1857    2.8239 N.ar    1  LIG1       -0.2429
     45 O           3.7676    2.6990    1.2094 O.3     1  LIG1       -0.4254
     46 O           2.6751    0.7987    1.0170 O.2     1  LIG1       -0.2507
     47 O           7.1278    3.2978    0.2115 O.3     1  LIG1       -0.4254
     48 O           9.2320    4.0787    0.2254 O.2     1  LIG1       -0.2507
@<TRIPOS>BOND
     1    41    39    1
     2    27    24    1
     3    25    24    1
     4    40    39    1
     5    24    26    1
     6    24    23    1
     7    39    42    1
     8    39    38    1
     9    36    35    1
    10    38    47    1
    11    38    48    2
    12    47    37    1
    13    35    37   ar
    14    35    33   ar
    15    23    46    2
    16    23    45    1
    17    34    33    1
    18    37    28   ar
    19    45    22    1
    20    33    31   ar
    21    21    20    1
    22    28    12    1
    23    28    29   ar
    24    22    20   ar
    25    22    13   ar
    26    31    29   ar
    27    31    32    1
    28    20    18   ar
    29    44    12   ar
    30    44    11   ar
    31    12     1   ar
    32    10     9    1
    33    29    30    1
    34     9    11   ar
    35     9     7   ar
    36    11     2   ar
    37     1    13    1
    38     1    43   ar
    39    13    14   ar
    40    18    19    1
    41    18    16   ar
    42     8     7    1
    43     7     5   ar
    44     2    43   ar
    45     2     3   ar
    46     5     3   ar
    47     5     6    1
    48    14    16   ar
    49    14    15    1
    50     3     4    1
    51    16    17    1
