@<TRIPOS>MOLECULE
Methyl 11-hydroxy-9-[1-(4-methoxyphenyl)-4-oxo-3-phenylazetidin-2-yl]-18-oxo-10-oxa-2-azapentacyclo[9.7.0.0^1,8^.0^2,6^.0^12,17^]octadeca-12(17),13,15-triene-8-carboxylate
 75 82 0 0 0
SMALL
GASTEIGER

@<TRIPOS>ATOM
      1 C          14.1582    4.0993   -0.1039 C.3     1  LIG1        0.0788
      2 H          13.4651    4.7469   -0.2508 H       1  LIG1        0.0660
      3 H          14.5598    3.8643   -0.9427 H       1  LIG1        0.0660
      4 H          14.8256    4.4713    0.4770 H       1  LIG1        0.0660
      5 C          12.8332    3.1384    1.6160 C.ar    1  LIG1        0.1202
      6 C          12.0491    2.0761    2.0162 C.ar    1  LIG1       -0.0182
      7 H          12.1054    1.2663    1.5607 H       1  LIG1        0.0655
      8 C          11.1821    2.1996    3.0818 C.ar    1  LIG1       -0.0368
      9 H          10.6594    1.4766    3.3431 H       1  LIG1        0.0637
     10 C          11.0932    3.4011    3.7590 C.ar    1  LIG1        0.0369
     11 C          11.9263    4.4400    3.3984 C.ar    1  LIG1       -0.0368
     12 H          11.9045    5.2364    3.8783 H       1  LIG1        0.0637
     13 C          12.7897    4.3081    2.3335 C.ar    1  LIG1       -0.0182
     14 H          13.3460    5.0154    2.0981 H       1  LIG1        0.0655
     15 C           9.0622    2.7212    5.2885 C.3     1  LIG1        0.0736
     16 H           9.3697    1.8472    5.6070 H       1  LIG1        0.0541
     17 C           8.8963    3.7330    6.4561 C.3     1  LIG1        0.0824
     18 H           8.0523    4.2254    6.3840 H       1  LIG1        0.0462
     19 C          10.0466    4.4991    5.7973 C.2     1  LIG1        0.2294
     20 C           9.1491    3.2941    7.8654 C.ar    1  LIG1       -0.0337
     21 C           9.8698    2.1596    8.1617 C.ar    1  LIG1       -0.0578
     22 H          10.2207    1.6441    7.4722 H       1  LIG1        0.0620
     23 C          10.0761    1.7759    9.4810 C.ar    1  LIG1       -0.0615
     24 H          10.5328    0.9883    9.6711 H       1  LIG1        0.0618
     25 C           9.6103    2.5528   10.4913 C.ar    1  LIG1       -0.0617
     26 H           9.7530    2.2986   11.3752 H       1  LIG1        0.0618
     27 C           8.9369    3.6980   10.2186 C.ar    1  LIG1       -0.0615
     28 H           8.6421    4.2385   10.9161 H       1  LIG1        0.0618
     29 C           8.6865    4.0662    8.9069 C.ar    1  LIG1       -0.0578
     30 H           8.2038    4.8408    8.7284 H       1  LIG1        0.0620
     31 C           7.9289    2.5876    4.2934 C.3     1  LIG1        0.1003
     32 H           8.3104    2.3865    3.4125 H       1  LIG1        0.0628
     33 C           6.8722    1.5071    4.6298 C.3     1  LIG1        0.1278
     34 C           5.5814    2.0610    3.8774 C.3     1  LIG1        0.1622
     35 C           5.2808    1.3706    2.5346 C.2     1  LIG1        0.1905
     36 C           5.8186    2.2264    1.4620 C.ar    1  LIG1        0.0278
     37 C           5.9101    1.9509    0.1008 C.ar    1  LIG1       -0.0508
     38 H           5.6025    1.1440   -0.2441 H       1  LIG1        0.0625
     39 C           6.4640    2.8990   -0.7190 C.ar    1  LIG1       -0.0611
     40 H           6.5328    2.7346   -1.6324 H       1  LIG1        0.0618
     41 C           6.9241    4.1033   -0.1991 C.ar    1  LIG1       -0.0613
     42 H           7.2973    4.7350   -0.7703 H       1  LIG1        0.0618
     43 C           6.8377    4.3775    1.1476 C.ar    1  LIG1       -0.0528
     44 H           7.1515    5.1829    1.4913 H       1  LIG1        0.0622
     45 C           6.2724    3.4266    1.9790 C.ar    1  LIG1        0.0238
     46 C           6.0194    3.5146    3.4607 C.3     1  LIG1        0.2228
     47 C           6.4044    1.4672    6.0906 C.3     1  LIG1       -0.0166
     48 H           6.2221    0.5536    6.3616 H       1  LIG1        0.0292
     49 H           7.0879    1.8330    6.6751 H       1  LIG1        0.0292
     50 C           5.1313    2.3111    6.1679 C.3     1  LIG1        0.0127
     51 H           5.3564    3.2513    6.3302 H       1  LIG1        0.0463
     52 C           4.0696    1.8409    7.1632 C.3     1  LIG1       -0.0361
     53 H           4.4054    1.1083    7.7029 H       1  LIG1        0.0281
     54 H           3.8047    2.5659    7.7499 H       1  LIG1        0.0281
     55 C           2.8938    1.3854    6.3056 C.3     1  LIG1       -0.0387
     56 H           2.4685    0.6023    6.6885 H       1  LIG1        0.0278
     57 H           2.2339    2.0907    6.2183 H       1  LIG1        0.0278
     58 C           3.5204    1.0634    4.9742 C.3     1  LIG1        0.0003
     59 H           3.9547    0.1960    4.9867 H       1  LIG1        0.0427
     60 H           2.8645    1.0810    4.2612 H       1  LIG1        0.0427
     61 C           7.2731    0.1201    4.1385 C.2     1  LIG1        0.3181
     62 C           8.3276   -1.0640    2.3787 C.3     1  LIG1        0.0817
     63 H           8.7958   -1.6073    3.0162 H       1  LIG1        0.0661
     64 H           8.8965   -0.8945    1.6257 H       1  LIG1        0.0661
     65 H           7.5366   -1.5229    2.0869 H       1  LIG1        0.0661
     66 N          10.1900    3.5611    4.8232 N.am    1  LIG1       -0.2642
     67 N           4.5035    2.1576    4.8315 N.3     1  LIG1       -0.2815
     68 O          10.6426    5.5270    6.0288 O.2     1  LIG1       -0.2745
     69 O          13.6010    2.9381    0.4955 O.3     1  LIG1       -0.4951
     70 O           7.2000    3.8163    4.2023 O.3     1  LIG1       -0.3367
     71 O           5.0602    4.4654    3.7422 O.3     1  LIG1       -0.3592
     72 O           4.7354    0.3008    2.4047 O.2     1  LIG1       -0.2898
     73 O           7.9561    0.1895    2.9940 O.3     1  LIG1       -0.4674
     74 O           6.9855   -0.9080    4.6813 O.2     1  LIG1       -0.2500
     75 H           4.4583    4.0270    4.2634 H       1  LIG1        0.2132
@<TRIPOS>BOND
     1    40    39    1
     2     3     1    1
     3    42    41    1
     4    39    41   ar
     5    39    37   ar
     6     2     1    1
     7    38    37    1
     8    41    43   ar
     9     1     4    1
    10     1    69    1
    11    37    36   ar
    12    69     5    1
    13    43    44    1
    14    43    45   ar
    15    36    45   ar
    16    36    35    1
    17     7     6    1
    18     5     6   ar
    19     5    13   ar
    20    64    62    1
    21    45    46    1
    22     6     8   ar
    23    65    62    1
    24    14    13    1
    25    13    11   ar
    26    62    73    1
    27    62    63    1
    28    72    35    2
    29    35    34    1
    30    73    61    1
    31     8     9    1
    32     8    10   ar
    33    11    10   ar
    34    11    12    1
    35    32    31    1
    36    46    71    1
    37    46    34    1
    38    46    70    1
    39    71    75    1
    40    10    66    1
    41    34    33    1
    42    34    67    1
    43    61    33    1
    44    61    74    2
    45    70    31    1
    46    60    58    1
    47    31    33    1
    48    31    15    1
    49    33    47    1
    50    66    15    1
    51    66    19   am
    52    67    58    1
    53    67    50    1
    54    58    59    1
    55    58    55    1
    56    15    16    1
    57    15    17    1
    58    19    68    2
    59    19    17    1
    60    47    50    1
    61    47    48    1
    62    47    49    1
    63    50    51    1
    64    50    52    1
    65    57    55    1
    66    55    56    1
    67    55    52    1
    68    18    17    1
    69    17    20    1
    70    52    53    1
    71    52    54    1
    72    22    21    1
    73    20    21   ar
    74    20    29   ar
    75    21    23   ar
    76    30    29    1
    77    29    27   ar
    78    23    24    1
    79    23    25   ar
    80    27    25   ar
    81    27    28    1
    82    25    26    1
