@<TRIPOS>MOLECULE
3-Chloro-<i>N</i>-[<i>N</i>-(furan-2-carbonyl)hydrazinocarbothioyl]benzamide
 31 32 0 0 0
SMALL
GASTEIGER

@<TRIPOS>ATOM
      1 CL          7.1720   -1.3105   -4.6525 Cl      1  LIG1       -0.0835
      2 O           5.4266    0.6983   -0.1584 O.2     1  LIG1       -0.2698
      3 O           4.8415    3.7976    2.2137 O.2     1  LIG1       -0.2653
      4 O           3.1191    3.2515    5.2621 O.2     1  LIG1       -0.4583
      5 N           5.1687   -0.9431    1.3755 N.am    1  LIG1       -0.2627
      6 H           5.3159   -1.7769    1.5297 H       1  LIG1        0.1569
      7 N           4.6791    1.1176    2.2690 N.am    1  LIG1       -0.2452
      8 H           5.0164    1.4603    1.5556 H       1  LIG1        0.1718
      9 N           4.1654    1.9233    3.2473 N.am    1  LIG1       -0.2286
     10 H           3.7669    1.5739    3.9251 H       1  LIG1        0.1732
     11 C           6.2769   -1.0290   -2.1240 C.ar    1  LIG1       -0.0313
     12 H           6.3403   -0.1121   -2.2688 H       1  LIG1        0.0640
     13 C           6.6266   -1.9109   -3.1163 C.ar    1  LIG1        0.0417
     14 C           6.5436   -3.2658   -2.9297 C.ar    1  LIG1       -0.0433
     15 H           6.7993   -3.8521   -3.6047 H       1  LIG1        0.0632
     16 C           6.0773   -3.7408   -1.7305 C.ar    1  LIG1       -0.0597
     17 H           6.0102   -4.6580   -1.5969 H       1  LIG1        0.0618
     18 C           5.7079   -2.8801   -0.7220 C.ar    1  LIG1       -0.0495
     19 H           5.3763   -3.2159    0.0801 H       1  LIG1        0.0625
     20 C           5.8303   -1.5103   -0.9049 C.ar    1  LIG1        0.0384
     21 C           5.4696   -0.4926    0.1181 C.2     1  LIG1        0.2496
     22 C           4.6521   -0.2009    2.4321 C.2     1  LIG1        0.1533
     23 C           4.2805    3.2620    3.1533 C.2     1  LIG1        0.2954
     24 C           3.6598    3.9848    4.2553 C.ar    1  LIG1        0.1905
     25 C           3.4659    5.2854    4.4801 C.ar    1  LIG1       -0.0112
     26 H           3.7559    5.9895    3.9458 H       1  LIG1        0.0657
     27 C           2.7424    5.3897    5.6750 C.ar    1  LIG1       -0.0231
     28 H           2.4474    6.1728    6.0802 H       1  LIG1        0.0649
     29 C           2.5618    4.1551    6.1140 C.ar    1  LIG1        0.0928
     30 H           2.1144    3.9354    6.8993 H       1  LIG1        0.1029
     31 S           4.0450   -0.9302    3.7892 S.2     1  LIG1       -0.0170
@<TRIPOS>BOND
     1     1    13    1
     2    15    14    1
     3    13    14   ar
     4    13    11   ar
     5    14    16   ar
     6    12    11    1
     7    11    20   ar
     8    16    17    1
     9    16    18   ar
    10    20    18   ar
    11    20    21    1
    12    18    19    1
    13     2    21    2
    14    21     5   am
    15     5     6    1
    16     5    22    1
    17     8     7    1
    18     3    23    2
    19     7    22    1
    20     7     9    1
    21    22    31    2
    22    23     9   am
    23    23    24    1
    24     9    10    1
    25    26    25    1
    26    24    25   ar
    27    24     4   ar
    28    25    27   ar
    29     4    29   ar
    30    27    28    1
    31    27    29   ar
    32    29    30    1
