@<TRIPOS>MOLECULE
2-Hydroxymethyl-1,3-dimethyl-1<i>H</i>-imidazol-3-ium triiodide
 23 21 0 0 0
SMALL
GASTEIGER

@<TRIPOS>ATOM
      1 I           1.3017    2.3081    3.6755 I       1  LIG1        0.0000
      2 I           1.2165   -0.1013    1.9254 I       1  LIG1        0.0000
      3 I           1.2877    4.6354    5.3367 I       1  LIG1        0.0000
      4 N           4.8834    2.6527    3.8490 N.pl3   2  LIG2       -0.3120
      5 O           5.6942    2.3419    1.0278 O.3     2  LIG2       -0.3911
      6 H           6.4345    2.0008    0.9378 H       2  LIG2        0.2096
      7 N           4.9051    0.4993    4.0167 N.pl3   2  LIG2       -0.3120
      8 C           4.8802    1.5190    3.1465 C.3     2  LIG2        0.1651
      9 C           4.8736   -0.9304    3.6767 C.3     2  LIG2        0.0023
     10 H           4.0235   -1.1482    3.2872 H       2  LIG2        0.0428
     11 H           5.0040   -1.4516    4.4715 H       2  LIG2        0.0428
     12 H           5.5727   -1.1249    3.0474 H       2  LIG2        0.0428
     13 C           4.8368    4.0203    3.3131 C.3     2  LIG2        0.0023
     14 H           5.7142    4.2802    3.0238 H       2  LIG2        0.0428
     15 H           4.5345    4.6225    3.9976 H       2  LIG2        0.0428
     16 H           4.2318    4.0530    2.5690 H       2  LIG2        0.0428
     17 C           4.9314    1.0129    5.2944 C.2     2  LIG2        0.0075
     18 H           4.9540    0.5228    6.0847 H       2  LIG2        0.0793
     19 C           4.9188    2.3525    5.1897 C.2     2  LIG2        0.0075
     20 H           4.9314    2.9624    5.8922 H       2  LIG2        0.0793
     21 C           4.8208    1.4174    1.6526 C.3     2  LIG2        0.0860
     22 H           5.0621    0.5165    1.3824 H       2  LIG2        0.0597
     23 H           3.9121    1.5839    1.3554 H       2  LIG2        0.0597
@<TRIPOS>BOND
     1     6     5    1
     2     5    21    1
     3    23    21    1
     4    22    21    1
     5    21     8    1
     6    16    13    1
     7    14    13    1
     8    12     9    1
     9     8     4    1
    10     8     7    1
    11    10     9    1
    12    13     4    1
    13    13    15    1
    14     1     3    1
    15     9     7    1
    16     9    11    1
    17     4    19    1
    18     7    17    1
    19    19    17    2
    20    19    20    1
    21    17    18    1
