@<TRIPOS>MOLECULE
(<i>S</i>,<i>Z</i>)-3-Phenyl-2-[(1,1,1-trichloro-7-methoxy-2,7-dioxohept-3-en-4-yl)amino]propanoic acid monohydrate
 47 46 0 0 0
SMALL
GASTEIGER

@<TRIPOS>ATOM
      1 O           4.1063    9.0284    9.5076 O.3     1  HOH1       -0.4105
      2 H           4.9158    8.7037    9.4664 H       0  HOH0        0.2052
      3 H           1.7526    4.2685    8.1788 H       2  LIG2        0.4458
      4 H           3.9967    9.6787    9.1368 H       0  HOH0        0.2052
      5 H           3.2325    7.7580    8.8999 H       2  LIG2        0.2953
      6 CL          4.7410    2.2561    4.3362 Cl      2  LIG2       -0.0753
      7 CL          3.2936    0.3326    5.9063 Cl      2  LIG2       -0.0753
      8 CL          5.6397    1.6411    6.9651 Cl      2  LIG2       -0.0753
      9 N           1.5283    4.8974    7.6865 N.2     2  LIG2       -0.2349
     10 C           4.1992    1.8545    5.9590 C.3     2  LIG2        0.2491
     11 C          -0.0250    6.7847    3.7515 C.2     2  LIG2        0.3073
     12 C           1.5389    7.0808    8.8844 C.2     2  LIG2        0.3744
     13 C           2.8312    4.0055    5.9116 C.3     2  LIG2        0.1203
     14 H           3.1039    4.0909    5.0268 H       2  LIG2        0.0496
     15 CA          0.7314    5.8881    8.3900 C.3     2  LIG2        0.2528
     16 HA          0.0718    6.2316    7.7524 H       2  LIG2        0.1189
     17 C           1.5692    6.1186    5.5604 C.3     2  LIG2        0.0385
     18 H           2.2670    6.2875    4.9073 H       2  LIG2        0.0374
     19 H           1.4535    6.9224    6.0909 H       2  LIG2        0.0374
     20 CG          0.8098    4.4407   10.4996 C.ar    2  LIG2       -0.0405
     21 C           3.2787    2.9109    6.6543 C.2     2  LIG2        0.1978
     22 C           0.2733    5.7981    4.8414 C.3     2  LIG2        0.0541
     23 H           0.3319    4.9084    4.4582 H       2  LIG2        0.0383
     24 H          -0.4555    5.7994    5.4811 H       2  LIG2        0.0383
     25 CB         -0.0554    5.2261    9.5427 C.3     2  LIG2        0.0455
     26 HB1        -0.5236    5.9155   10.0381 H       2  LIG2        0.0384
     27 HB2        -0.7222    4.6308    9.1646 H       2  LIG2        0.0384
     28 CD2         1.7620    5.0639   11.2886 C.ar    2  LIG2       -0.0583
     29 HD2         1.8625    5.9877   11.2443 H       2  LIG2        0.0620
     30 C          -1.6882    7.5378    2.2538 C.3     2  LIG2        0.0817
     31 H          -2.6002    7.3596    2.0117 H       2  LIG2        0.0661
     32 H          -1.1225    7.4035    1.4895 H       2  LIG2        0.0661
     33 H          -1.6085    8.4452    2.5556 H       2  LIG2        0.0661
     34 CD1         0.6562    3.0708   10.6160 C.ar    2  LIG2       -0.0583
     35 HD1         0.0128    2.6315   10.1082 H       2  LIG2        0.0620
     36 CE1         1.4636    2.3487   11.4916 C.ar    2  LIG2       -0.0615
     37 HE1         1.3559    1.4274   11.5595 H       2  LIG2        0.0618
     38 CE2         2.5675    4.3299   12.1436 C.ar    2  LIG2       -0.0615
     39 HE2         3.2211    4.7555   12.6494 H       2  LIG2        0.0618
     40 CZ          2.3957    2.9619   12.2415 C.ar    2  LIG2       -0.0617
     41 HZ          2.9242    2.4665   12.8245 H       2  LIG2        0.0618
     42 O          -1.2872    6.6385    3.3148 O.3     2  LIG2       -0.4679
     43 O           2.8137    7.0297    8.6176 O.3     2  LIG2       -0.4760
     44 OXT         1.0034    7.9953    9.4664 O.2     2  LIG2       -0.2434
     45 O           0.7471    7.5734    3.3169 O.2     2  LIG2       -0.2508
     46 C           1.9842    4.9787    6.4576 C.2     0  ACE0        0.1663
     47 O           3.0036    2.6755    7.8420 O.2     2  LIG2       -0.2920
@<TRIPOS>BOND
     1    32    30    1
     2    31    30    1
     3    30    33    1
     4    30    42    1
     5    42    11    1
     6    45    11    2
     7    11    22    1
     8     6    10    1
     9    23    22    1
    10    22    24    1
    11    22    17    1
    12    18    17    1
    13    14    13    1
    14    17    19    1
    15    17    46    1
    16     7    10    1
    17    13    46    1
    18    13    21    1
    19    10    21    1
    20    10     8    1
    21    46     9    2
    22    21    47    2
    23     9     3    1
    24     9    15    1
    25    16    15    1
    26    15    12    1
    27    15    25    1
    28    43    12    1
    29    43     5    1
    30    12    44    2
    31     4     1    1
    32    27    25    1
    33     2     1    1
    34    25    26    1
    35    25    20    1
    36    35    34    1
    37    20    34   ar
    38    20    28   ar
    39    34    36   ar
    40    29    28    1
    41    28    38   ar
    42    36    37    1
    43    36    40   ar
    44    38    40   ar
    45    38    39    1
    46    40    41    1
