@<TRIPOS>MOLECULE
<i>L</i>-Histidinium <i>p</i>-toluenesulfonate
 39 39 0 0 0
SMALL
GASTEIGER

@<TRIPOS>ATOM
      1 C           2.9965    6.5261    3.1916 C.ar    1  LIG1        0.1196
      2 C           1.8687    6.5614    2.3874 C.ar    1  LIG1       -0.0341
      3 H           1.2896    7.2888    2.4183 H       1  LIG1        0.0637
      4 C           1.6163    5.4937    1.5328 C.ar    1  LIG1       -0.0570
      5 H           0.8669    5.5217    0.9818 H       1  LIG1        0.0621
      6 C           2.4521    4.3883    1.4789 C.ar    1  LIG1       -0.0503
      7 C           3.5762    4.3772    2.2808 C.ar    1  LIG1       -0.0570
      8 H           4.1570    3.6521    2.2464 H       1  LIG1        0.0621
      9 C           3.8508    5.4406    3.1381 C.ar    1  LIG1       -0.0341
     10 H           4.6097    5.4200    3.6752 H       1  LIG1        0.0637
     11 C           2.1322    3.2092    0.5883 C.3     1  LIG1       -0.0397
     12 H           1.3723    3.4193    0.0382 H       1  LIG1        0.0278
     13 H           1.9325    2.4429    1.1308 H       1  LIG1        0.0278
     14 H           2.8874    3.0162    0.0267 H       1  LIG1        0.0278
     15 CE1         6.5295    3.9970    5.0208 C.3     1  HIS1        0.1202
     16 HE1         7.1867    3.8747    4.3744 H       1  HIS1        0.0742
     17 CD2         5.2742    4.9049    6.5811 C.2     1  HIS1        0.0081
     18 HD2         4.9269    5.5239    7.1824 H       1  HIS1        0.0794
     19 CG          4.8284    3.6367    6.3748 C.2     1  HIS1        0.0249
     20 CB          3.7533    2.8681    7.0598 C.3     1  HIS1        0.0400
     21 HB1         3.1826    2.4539    6.3916 H       1  HIS1        0.0387
     22 HB2         3.2089    3.4775    7.5835 H       1  HIS1        0.0387
     23 CA          4.3261    1.7767    7.9866 C.3     1  HIS1        0.0838
     24 HA          4.9923    1.2476    7.4995 H       1  HIS1        0.0973
     25 C           4.9870    2.4377    9.2118 C.2     1  HIS1        0.4030
     26 ND1         5.6236    3.1002    5.3910 N.pl3   1  HIS1       -0.3254
     27 HD1         5.5467    2.3080    5.0659 H       1  HIS1        0.1477
     28 NE2         6.3351    5.0950    5.7314 N.pl3   1  HIS1       -0.3279
     29 HE2         6.8004    5.8157    5.6695 H       1  HIS1        0.1474
     30 N           3.2036    0.8961    8.4133 N.4     1  HIS1        0.2292
     31 O           2.6181    8.9896    3.8777 O.2     1  LIG1       -0.1397
     32 O           4.7109    7.9417    4.5104 O.2     1  LIG1       -0.1397
     33 O           2.6703    7.3197    5.6164 O.3     1  LIG1       -0.0427
     34 O           6.2365    2.5843    9.1419 O.co2   1  HIS1       -0.2400
     35 OXT         4.2429    2.8165   10.1165 O.co2   1  HIS1       -0.2400
     36 S           3.2743    7.8093    4.3742 S.3     1  LIG1        0.1396
     37 H1          2.8142    0.4716    7.6981 H       1  HIS1        0.2003
     38 H2          3.5467    0.1769    8.9436 H       1  HIS1        0.2003
     39 H3          2.5665    1.2749    8.7870 H       1  HIS1        0.2003
@<TRIPOS>BOND
     1    14    11    1
     2    12    11    1
     3    11    13    1
     4    11     6    1
     5     5     4    1
     6     6     4   ar
     7     6     7   ar
     8     4     2   ar
     9     8     7    1
    10     7     9   ar
    11     2     3    1
    12     2     1   ar
    13     9     1   ar
    14     9    10    1
    15     1    36    1
    16    31    36    2
    17    36    32    2
    18    36    33    1
    19    16    15    1
    20    15    26    1
    21    15    28    1
    22    27    26    1
    23    26    19    1
    24    29    28    1
    25    28    17    1
    26    19    17    2
    27    19    20    1
    28    21    20    1
    29    17    18    1
    30    20    22    1
    31    20    23    1
    32    24    23    1
    33    37    30    1
    34    23    30    1
    35    23    25    1
    36    30    39    1
    37    30    38    1
    38    34    25   ar
    39    25    35   ar
