@<TRIPOS>MOLECULE
Bis(2,3-dimethoxy-10-oxostrychnidinium) phthalate nonahydrate
 78 78 0 0 0
SMALL
GASTEIGER

@<TRIPOS>ATOM
      1 C           6.2549    5.4143   10.5892 C.3     1  LIG1        0.0790
      2 H           6.5718    5.9933   11.2863 H       1  LIG1        0.0660
      3 H           6.9662    4.8354   10.3058 H       1  LIG1        0.0660
      4 H           5.5250    4.8861   10.9201 H       1  LIG1        0.0660
      5 C           5.1200    8.4326    6.2904 C.3     1  LIG1        0.0790
      6 H           5.3168    9.3468    6.5110 H       1  LIG1        0.0660
      7 H           4.2305    8.3733    5.9350 H       1  LIG1        0.0660
      8 H           5.7476    8.1197    5.6347 H       1  LIG1        0.0660
      9 C           4.9654    6.3025    7.3168 C.ar    1  LIG1        0.1619
     10 C           4.3758    5.7298    6.2146 C.ar    1  LIG1       -0.0106
     11 H           4.0904    6.2592    5.5045 H       1  LIG1        0.0659
     12 C           4.2112    4.3468    6.1729 C.ar    1  LIG1       -0.0088
     13 C           4.6470    3.5588    7.2212 C.ar    1  LIG1        0.0443
     14 C           5.1890    4.1316    8.3732 C.ar    1  LIG1        0.0054
     15 H           5.4508    3.6021    9.0909 H       1  LIG1        0.0674
     16 C           5.3257    5.4985    8.4184 C.ar    1  LIG1        0.1633
     17 C           5.1152    1.1442    7.4895 C.2     1  LIG1        0.2225
     18 C           5.1687   -0.1188    6.6685 C.3     1  LIG1        0.0511
     19 H           4.3815   -0.6432    6.8833 H       1  LIG1        0.0384
     20 H           5.9389   -0.6284    6.9645 H       1  LIG1        0.0384
     21 C           5.2473   -0.0012    5.1374 C.3     1  LIG1        0.0724
     22 H           6.1163   -0.3352    4.8319 H       1  LIG1        0.0604
     23 C           4.1827   -1.0712    3.2494 C.3     1  LIG1        0.0667
     24 H           3.8197   -1.9495    3.0563 H       1  LIG1        0.0604
     25 H           5.0858   -1.0354    2.8955 H       1  LIG1        0.0604
     26 C           3.3497   -0.0359    2.5814 C.2     1  LIG1       -0.0542
     27 H           2.5726   -0.3055    2.1494 H       1  LIG1        0.0596
     28 C           3.6579    1.2419    2.5712 C.2     1  LIG1       -0.0233
     29 C           4.9442    1.7578    3.2089 C.3     1  LIG1       -0.0029
     30 H           5.7092    1.3669    2.7362 H       1  LIG1        0.0353
     31 C           5.0882    1.4621    4.7054 C.3     1  LIG1        0.0127
     32 H           5.9068    1.9186    4.9928 H       1  LIG1        0.0350
     33 C           3.9658    2.0646    5.5221 C.3     1  LIG1        0.0518
     34 H           3.1940    1.4609    5.5137 H       1  LIG1        0.0519
     35 C           3.5101    3.4958    5.1486 C.3     1  LIG1        0.0643
     36 C           3.7499    3.8693    3.6776 C.3     1  LIG1       -0.0082
     37 H           3.7995    4.8453    3.6048 H       1  LIG1        0.0861
     38 N           2.5027    3.3820    2.9342 N.4     1  LIG1        0.2411
     39 H           2.1648    4.0883    2.4696 H       1  LIG1        0.2040
     40 C           2.7839    2.2884    1.9564 C.3     1  LIG1       -0.0094
     41 H           3.2220    2.6583    1.1750 H       1  LIG1        0.0864
     42 H           1.9479    1.8864    1.6714 H       1  LIG1        0.0864
     43 C           4.9975    3.2694    3.0547 C.3     1  LIG1       -0.0017
     44 H           5.7871    3.6195    3.4945 H       1  LIG1        0.0326
     45 H           5.0430    3.5044    2.1142 H       1  LIG1        0.0326
     46 C           1.9704    3.6269    5.2442 C.3     1  LIG1        0.0041
     47 H           1.6271    3.1568    6.0192 H       1  LIG1        0.0328
     48 H           1.7022    4.5583    5.2931 H       1  LIG1        0.0328
     49 C           8.1537   11.9445    0.9192 C.2     2  LIG2        0.3686
     50 C           7.5124   13.2025    0.4333 C.3     2  LIG2        0.1315
     51 C           8.0457   14.4148    0.8533 C.2     2  LIG2       -0.0644
     52 H           8.7724   14.4185    1.4340 H       2  LIG2        0.0584
     53 C           7.5139   15.6159    0.4213 C.2     2  LIG2       -0.0648
     54 H           7.8900   16.4199    0.6971 H       2  LIG2        0.0615
     55 N           4.4808    2.1957    6.9106 N.am    1  LIG1       -0.2665
     56 C           1.4927    2.9923    3.9694 C.3     1  LIG1       -0.0302
     57 H           1.4499    2.0287    4.0613 H       1  LIG1        0.0815
     58 H           0.6117    3.3238    3.7304 H       1  LIG1        0.0815
     59 O           5.8162    6.1920    9.4938 O.3     1  LIG1       -0.4914
     60 O           5.2170    7.6364    7.4523 O.3     1  LIG1       -0.4914
     61 O           5.6124    1.2040    8.6157 O.2     1  LIG1       -0.2752
     62 O           4.2190   -0.8730    4.6679 O.3     1  LIG1       -0.3717
     63 O           8.3223   11.8430    2.1613 O.co2   2  LIG2       -0.2453
     64 O           8.5574   11.1157    0.1014 O.co2   2  LIG2       -0.2453
     65 O           4.9020    1.5265   11.2792 O.3     3  HOH3       -0.4105
     66 O           2.3419    1.1826   12.3464 O.3     4  HOH4       -0.4105
     67 O           0.6589    2.8402   13.7604 O.3     5  HOH5       -0.4105
     68 O           2.3221   11.9420   14.5969 O.3     6  HOH6       -0.4105
     69 O          -0.1727   13.0071   15.3200 O.3     7  HOH7       -0.2528
     70 H           5.0115    1.5462   10.4682 H       0  HOH0        0.2052
     71 H           5.2359    0.8412   11.5819 H       0  HOH0        0.2052
     72 H           1.0385    3.4017   14.2170 H       0  HOH0        0.2052
     73 H           3.0699    1.4225   12.0722 H       0  HOH0        0.2052
     74 H           2.0297    1.7689   12.8382 H       0  HOH0        0.2052
     75 H           0.4528    2.2019   14.2323 H       0  HOH0        0.2052
     76 H           3.1229   11.9494   14.7838 H       0  HOH0        0.2052
     77 H           2.2135   12.2463   13.8493 H       0  HOH0        0.2052
     78 H           0.3023   12.5308   14.8512 H       0  HOH0        0.2528
@<TRIPOS>BOND
     1    64    49   ar
     2    53    54    1
     3    53    51    2
     4    50    51    1
     5    50    49    1
     6    51    52    1
     7    49    63   ar
     8    41    40    1
     9    42    40    1
    10    40    28    1
    11    40    38    1
    12    45    43    1
    13    27    26    1
    14    39    38    1
    15    28    26    2
    16    28    29    1
    17    26    23    1
    18    30    29    1
    19    25    23    1
    20    38    36    1
    21    38    56    1
    22    43    29    1
    23    43    44    1
    24    43    36    1
    25    24    23    1
    26    29    31    1
    27    23    62    1
    28    37    36    1
    29    36    35    1
    30    58    56    1
    31    56    57    1
    32    56    46    1
    33    62    21    1
    34    31    32    1
    35    31    21    1
    36    31    33    1
    37    22    21    1
    38    21    18    1
    39    35    46    1
    40    35    33    1
    41    35    12    1
    42    46    48    1
    43    46    47    1
    44    11    10    1
    45    34    33    1
    46    33    55    1
    47     8     5    1
    48     7     5    1
    49    12    10   ar
    50    12    13   ar
    51    10     9   ar
    52     5     6    1
    53     5    60    1
    54    18    19    1
    55    18    20    1
    56    18    17    1
    57    55    13    1
    58    55    17   am
    59    13    14   ar
    60     9    60    1
    61     9    16   ar
    62    17    61    2
    63    14    16   ar
    64    14    15    1
    65    16    59    1
    66    59     1    1
    67     3     1    1
    68    70    65    1
    69     1     4    1
    70     1     2    1
    71    65    71    1
    72    73    66    1
    73    66    74    1
    74    67    72    1
    75    67    75    1
    76    77    68    1
    77    68    76    1
    78    78    69    1
