@<TRIPOS>MOLECULE
4-Carboxypyridin-1-ium 2,4,5-tricarboxybenzoate monohydrate
 41 40 0 0 0
SMALL
GASTEIGER

@<TRIPOS>ATOM
      1 O          -3.4325    3.9369    5.4705 O.co2   1  LIG1       -0.2406
      2 O          -3.0589    4.5856    7.5990 O.co2   1  LIG1       -0.2406
      3 O          -1.8928    1.9379    7.7607 O.2     1  LIG1       -0.2451
      4 O           0.1969    1.9661    8.6271 O.3     1  LIG1       -0.4771
      5 H          -0.1341    1.4208    9.1738 H       1  LIG1        0.2954
      6 O           3.4763    5.4776    4.5705 O.2     1  LIG1       -0.2451
      7 O           3.8062    3.7040    5.9072 O.3     1  LIG1       -0.4771
      8 H           4.6208    3.8014    5.7063 H       1  LIG1        0.2954
      9 O           1.1296    7.5565    4.2598 O.2     1  LIG1       -0.2451
     10 O           1.2092    5.9163    2.6996 O.3     1  LIG1       -0.4771
     11 H           1.4596    6.5414    2.1842 H       1  LIG1        0.2954
     12 O          -1.5624    8.8106   -0.1857 O.2     2  LIG2       -0.2496
     13 O          -0.4619    6.8373   -0.2403 O.3     2  LIG2       -0.4798
     14 H           0.0899    7.3129   -0.6735 H       2  LIG2        0.2951
     15 O           2.2532    7.8219    1.2104 O.3     3  HOH3       -0.4105
     16 H           2.1280    8.6054    1.5108 H       0  HOH0        0.2052
     17 H           2.2133    7.8262    0.3649 H       0  HOH0        0.2052
     18 N          -4.1764    5.8873    2.8695 N.pl3   2  LIG2       -0.3269
     19 H          -4.7749    5.5616    3.4402 H       2  LIG2        0.1510
     20 C          -1.1829    4.2467    6.1441 C.ar    1  LIG1        0.0779
     21 C          -0.2556    3.3902    6.7902 C.ar    1  LIG1        0.0737
     22 C           1.1106    3.5062    6.5035 C.ar    1  LIG1       -0.0322
     23 H           1.7299    2.9358    6.9440 H       1  LIG1        0.0634
     24 C           1.5774    4.4487    5.5780 C.ar    1  LIG1        0.0736
     25 C           0.6539    5.3010    4.9282 C.ar    1  LIG1        0.0736
     26 C          -0.7145    5.1957    5.2258 C.ar    1  LIG1       -0.0321
     27 H          -1.3320    5.7762    4.7980 H       1  LIG1        0.0634
     28 C          -2.6815    4.2375    6.4362 C.2     1  LIG1        0.3874
     29 C          -0.7329    2.3600    7.7649 C.2     1  LIG1        0.3376
     30 C           3.0547    4.5791    5.3022 C.2     1  LIG1        0.3376
     31 C           1.0592    6.3829    3.9389 C.2     1  LIG1        0.3376
     32 C          -2.4026    6.9859    1.1185 C.3     2  LIG2        0.1291
     33 C          -3.5657    7.6811    1.4598 C.2     2  LIG2       -0.0481
     34 H          -3.7451    8.5368    1.0867 H       2  LIG2        0.0599
     35 C          -4.4541    7.1010    2.3517 C.2     2  LIG2       -0.0093
     36 H          -5.2523    7.5542    2.5965 H       2  LIG2        0.0778
     37 C          -3.0705    5.1875    2.5519 C.2     2  LIG2       -0.0093
     38 H          -2.9188    4.3331    2.9387 H       2  LIG2        0.0778
     39 C          -2.1529    5.7212    1.6564 C.2     2  LIG2       -0.0481
     40 H          -1.3716    5.2365    1.4152 H       2  LIG2        0.0599
     41 C          -1.4282    7.6468    0.1593 C.2     2  LIG2        0.3204
@<TRIPOS>BOND
     1    14    13    1
     2    13    41    1
     3    12    41    2
     4    41    32    1
     5    17    15    1
     6    34    33    1
     7    32    33    1
     8    32    39    1
     9    15    16    1
    10    40    39    1
    11    33    35    2
    12    39    37    2
    13    11    10    1
    14    35    36    1
    15    35    18    1
    16    37    18    1
    17    37    38    1
    18    10    31    1
    19    18    19    1
    20    31     9    2
    21    31    25    1
    22     6    30    2
    23    27    26    1
    24    25    26   ar
    25    25    24   ar
    26    26    20   ar
    27    30    24    1
    28    30     7    1
    29     1    28   ar
    30    24    22   ar
    31     8     7    1
    32    20    28    1
    33    20    21   ar
    34    28     2   ar
    35    22    21   ar
    36    22    23    1
    37    21    29    1
    38     3    29    2
    39    29     4    1
    40     4     5    1
