@<TRIPOS>MOLECULE
Bis(<i>L</i>-serinium) oxalate dihydrate
 42 37 0 0 0
SMALL
GASTEIGER

@<TRIPOS>ATOM
      1 C           1.2477    5.8281    6.4601 C.2     1  LIG1        0.3558
      2 CA          0.4510    7.0476    6.0299 C.3     1  LIG1        0.0975
      3 HA          0.9159    7.8618    6.3139 H       1  LIG1        0.0992
      4 C          -0.9310    7.0126    6.6405 C.3     1  LIG1        0.0972
      5 H1         -1.4104    6.2444    6.2930 H       1  LIG1        0.0620
      6 H2         -0.8494    6.9020    7.6012 H       1  LIG1        0.0620
      7 C          -1.1141    4.4402    9.2103 C.2     2  LIG2        0.4661
      8 C           0.0600    3.4541    9.4191 C.2     2  LIG2        0.4661
      9 C           2.9161    7.7202   12.3211 C.2     3  LIG3        0.3558
     10 CA          1.5881    7.0273   12.0378 C.3     3  LIG3        0.0975
     11 HA          0.8642    7.6299   12.3077 H       3  LIG3        0.0992
     12 C           1.4431    5.7265   12.8221 C.3     3  LIG3        0.0972
     13 H1          2.1052    5.0885   12.5137 H       3  LIG3        0.0620
     14 H2          1.6054    5.8966   13.7630 H       3  LIG3        0.0620
     15 N           0.3508    7.0192    4.5389 N.4     1  LIG1        0.2304
     16 H1         -0.0457    6.2644    4.2824 H       1  LIG1        0.2003
     17 H2          1.1667    7.0603    4.1855 H       1  LIG1        0.2003
     18 H3         -0.1283    7.7157    4.2603 H       1  LIG1        0.2003
     19 N           1.4752    6.7893   10.5695 N.4     3  LIG3        0.2304
     20 H1          0.7352    6.3246   10.4001 H       3  LIG3        0.2003
     21 H2          2.1837    6.3302   10.2873 H       3  LIG3        0.2003
     22 H3          1.4392    7.5708   10.1439 H       3  LIG3        0.2003
     23 O           1.6575    5.0036    5.6766 O.2     1  LIG1       -0.2445
     24 O           1.4341    5.7955    7.7657 O.3     1  LIG1       -0.4766
     25 H           1.9730    5.2055    7.9506 H       1  LIG1        0.2953
     26 O          -1.6851    8.1933    6.3699 O.3     1  LIG1       -0.3889
     27 H          -1.8060    8.2619    5.5623 H       1  LIG1        0.2097
     28 O           0.2049    2.5235    8.5942 O.co2   2  LIG2       -0.2331
     29 O           0.7883    3.6666   10.4349 O.co2   2  LIG2       -0.2331
     30 O          -1.9497    4.1012    8.3241 O.co2   2  LIG2       -0.2331
     31 O          -1.1576    5.4644    9.9119 O.co2   2  LIG2       -0.2331
     32 O           4.4035    4.4985    3.8863 O.3     4  HOH4       -0.4105
     33 O           1.8266    3.8147    2.7177 O.3     5  HOH5       -0.4105
     34 O           3.6538    8.1167   11.4481 O.2     3  LIG3       -0.2445
     35 O           3.1120    7.8613   13.6193 O.3     3  LIG3       -0.4766
     36 H           3.7830    8.3154   13.7471 H       3  LIG3        0.2953
     37 O           0.1426    5.1761   12.6581 O.3     3  LIG3       -0.3889
     38 H           0.1238    4.7162   11.9792 H       3  LIG3        0.2097
     39 H           3.6367    4.3249    3.5848 H       0  HOH0        0.2052
     40 H           4.4887    4.0574    4.5975 H       0  HOH0        0.2052
     41 H           1.0945    4.0685    3.0368 H       0  HOH0        0.2052
     42 H           1.8502    4.2859    2.0204 H       0  HOH0        0.2052
@<TRIPOS>BOND
     1    42    33    1
     2    33    41    1
     3    39    32    1
     4    32    40    1
     5    17    15    1
     6    18    15    1
     7    16    15    1
     8    15     2    1
     9    27    26    1
    10    23     1    2
    11     2     3    1
    12     2     1    1
    13     2     4    1
    14     5     4    1
    15    26     4    1
    16     1    24    1
    17     4     6    1
    18    24    25    1
    19    30     7   ar
    20    28     8   ar
    21     7     8    1
    22     7    31   ar
    23     8    29   ar
    24    22    19    1
    25    21    19    1
    26    20    19    1
    27    19    10    1
    28    34     9    2
    29    38    37    1
    30    10    11    1
    31    10     9    1
    32    10    12    1
    33     9    35    1
    34    13    12    1
    35    37    12    1
    36    12    14    1
    37    35    36    1
