@<TRIPOS>MOLECULE
2-(3-Nitrophenyl)-3-phenyl-2,3-dihydro-4<i>H</i>-1,3-benzothiazin-4-one
 40 43 0 0 0
SMALL
GASTEIGER

@<TRIPOS>ATOM
      1 C           0.5069    2.8380    4.7428 C.ar    1  LIG1        0.1265
      2 C           1.4897    2.2797    3.9423 C.ar    1  LIG1       -0.0257
      3 H           2.3845    2.4960    4.0753 H       1  LIG1        0.0644
      4 C           1.1221    1.3958    2.9419 C.ar    1  LIG1       -0.0142
      5 C          -0.2282    1.0748    2.8003 C.ar    1  LIG1       -0.0558
      6 H          -0.4896    0.4843    2.1315 H       1  LIG1        0.0621
      7 C          -1.1844    1.6194    3.6364 C.ar    1  LIG1       -0.0593
      8 H          -2.0772    1.3759    3.5385 H       1  LIG1        0.0618
      9 C          -0.8215    2.5225    4.6167 C.ar    1  LIG1       -0.0315
     10 H          -1.4596    2.9046    5.1751 H       1  LIG1        0.0640
     11 C           2.1387    0.7613    2.0086 C.3     1  LIG1        0.1071
     12 H           2.0130   -0.2089    2.0724 H       1  LIG1        0.0675
     13 C           4.2782   -0.0027    3.0196 C.ar    1  LIG1        0.0380
     14 C           3.7366   -0.7027    4.0872 C.ar    1  LIG1       -0.0402
     15 H           2.8801   -0.5039    4.3889 H       1  LIG1        0.0636
     16 C           4.4766   -1.7014    4.7037 C.ar    1  LIG1       -0.0600
     17 H           4.1087   -2.1814    5.4101 H       1  LIG1        0.0618
     18 C           5.7487   -1.9840    4.2745 C.ar    1  LIG1       -0.0616
     19 H           6.2525   -2.6357    4.7053 H       1  LIG1        0.0618
     20 C           6.2771   -1.2953    3.1997 C.ar    1  LIG1       -0.0600
     21 H           7.1343   -1.4973    2.9019 H       1  LIG1        0.0618
     22 C           5.5472   -0.3116    2.5628 C.ar    1  LIG1       -0.0402
     23 H           5.9061    0.1397    1.8322 H       1  LIG1        0.0636
     24 C           4.0635    2.2880    2.2244 C.2     1  LIG1        0.2531
     25 C           3.3496    3.2555    1.3408 C.ar    1  LIG1        0.0507
     26 C           3.7431    4.5928    1.3973 C.ar    1  LIG1       -0.0486
     27 H           4.3570    4.8628    2.0422 H       1  LIG1        0.0625
     28 C           3.2383    5.5182    0.5158 C.ar    1  LIG1       -0.0610
     29 H           3.5007    6.4084    0.5736 H       1  LIG1        0.0618
     30 C           2.3402    5.1219   -0.4575 C.ar    1  LIG1       -0.0607
     31 H           2.0222    5.7426   -1.0736 H       1  LIG1        0.0618
     32 C           1.9136    3.8166   -0.5200 C.ar    1  LIG1       -0.0475
     33 H           1.3003    3.5612   -1.1707 H       1  LIG1        0.0629
     34 C           2.3968    2.8741    0.3867 C.ar    1  LIG1        0.0221
     35 N           0.9079    3.8445    5.7375 N.pl3   1  LIG1        0.0564
     36 N           3.5262    1.0271    2.3601 N.am    1  LIG1       -0.2506
     37 O           0.0472    4.3586    6.4263 O.2     1  LIG1       -0.1261
     38 O           2.0887    4.1422    5.8179 O.2     1  LIG1       -0.1261
     39 O           5.1018    2.6010    2.7893 O.2     1  LIG1       -0.2696
     40 S           1.8323    1.2155    0.2685 S.3     1  LIG1       -0.0967
@<TRIPOS>BOND
     1    33    32    1
     2    31    30    1
     3    32    30   ar
     4    32    34   ar
     5    30    28   ar
     6    40    34    1
     7    40    11    1
     8    34    25   ar
     9    28    29    1
    10    28    26   ar
    11    25    26   ar
    12    25    24    1
    13    26    27    1
    14    23    22    1
    15    11    12    1
    16    11    36    1
    17    11     4    1
    18     6     5    1
    19    24    36   am
    20    24    39    2
    21    36    13    1
    22    22    13   ar
    23    22    20   ar
    24     5     4   ar
    25     5     7   ar
    26    21    20    1
    27     4     2   ar
    28    13    14   ar
    29    20    18   ar
    30     8     7    1
    31     7     9   ar
    32     2     3    1
    33     2     1   ar
    34    14    15    1
    35    14    16   ar
    36    18    16   ar
    37    18    19    1
    38     9     1   ar
    39     9    10    1
    40    16    17    1
    41     1    35    1
    42    35    38    2
    43    35    37    2
