@<TRIPOS>MOLECULE
<i>N</i>-<i>tert</i>-Butyl-2-(2,6-dichlorophenyl)imidazo[1,2-a]pyrazin-3-amine
 38 40 0 0 0
SMALL
GASTEIGER

@<TRIPOS>ATOM
      1 C           5.8772    3.3387   -1.6130 C.ar    1  LIG1        0.0442
      2 H           5.6013    3.8949   -2.3047 H       1  LIG1        0.0844
      3 C           5.1915    3.3946   -0.4550 C.ar    1  LIG1        0.0310
      4 H           4.4695    3.9706   -0.3462 H       1  LIG1        0.0829
      5 C           6.6872    1.7277    0.3923 C.ar    1  LIG1        0.1579
      6 C           7.3314    1.7507   -0.8691 C.ar    1  LIG1        0.0704
      7 H           8.0599    1.1904   -1.0080 H       1  LIG1        0.0867
      8 C           5.1463    2.3908    1.8506 C.ar    1  LIG1        0.1316
      9 C           5.9939    1.4454    2.3860 C.ar    1  LIG1        0.1144
     10 C           5.9040    0.8859    3.7525 C.ar    1  LIG1        0.0403
     11 C           6.1747    1.6386    4.8910 C.ar    1  LIG1        0.0516
     12 C           5.9979    1.1513    6.1690 C.ar    1  LIG1       -0.0427
     13 H           6.1770    1.6882    6.9074 H       1  LIG1        0.0632
     14 C           5.5546   -0.1344    6.3368 C.ar    1  LIG1       -0.0590
     15 H           5.4296   -0.4705    7.1949 H       1  LIG1        0.0618
     16 C           5.2917   -0.9314    5.2476 C.ar    1  LIG1       -0.0427
     17 H           4.9971   -1.8057    5.3637 H       1  LIG1        0.0632
     18 C           5.4712   -0.4145    3.9778 C.ar    1  LIG1        0.0516
     19 C           2.6974    2.6180    2.3275 C.3     1  LIG1        0.0250
     20 C           2.4425    1.8898    1.0486 C.3     1  LIG1       -0.0443
     21 H           2.4515    2.5128    0.3180 H       1  LIG1        0.0250
     22 H           1.5857    1.4589    1.0903 H       1  LIG1        0.0250
     23 H           3.1263    1.2292    0.9144 H       1  LIG1        0.0250
     24 C           1.7920    3.8159    2.4389 C.3     1  LIG1       -0.0443
     25 H           1.9593    4.2671    3.2699 H       1  LIG1        0.0250
     26 H           0.8760    3.5287    2.4096 H       1  LIG1        0.0250
     27 H           1.9632    4.4152    1.7094 H       1  LIG1        0.0250
     28 C           2.4496    1.7182    3.4965 C.3     1  LIG1       -0.0443
     29 H           2.9559    0.9089    3.3894 H       1  LIG1        0.0250
     30 H           1.5151    1.5068    3.5450 H       1  LIG1        0.0250
     31 H           2.7212    2.1607    4.3038 H       1  LIG1        0.0250
     32 N           6.9446    2.5259   -1.8441 N.ar    1  LIG1       -0.2582
     33 N           6.9459    1.0388    1.4968 N.ar    1  LIG1       -0.2242
     34 N           5.6048    2.5643    0.5607 N.ar    1  LIG1       -0.2849
     35 N           4.0888    3.1432    2.3427 N.pl3   1  LIG1       -0.3236
     36 H           4.2408    3.9269    2.6621 H       1  LIG1        0.1480
     37 CL          6.7720    3.2611    4.7120 Cl      1  LIG1       -0.0828
     38 CL          5.0930   -1.4315    2.6297 Cl      1  LIG1       -0.0828
@<TRIPOS>BOND
     1     2     1    1
     2    32     1   ar
     3    32     6   ar
     4     1     3   ar
     5     7     6    1
     6     6     5   ar
     7     3     4    1
     8     3    34   ar
     9    21    20    1
    10     5    34   ar
    11     5    33   ar
    12    34     8   ar
    13    23    20    1
    14    20    22    1
    15    20    19    1
    16    33     9   ar
    17    27    24    1
    18     8    35    1
    19     8     9   ar
    20    19    35    1
    21    19    24    1
    22    19    28    1
    23    35    36    1
    24     9    10    1
    25    26    24    1
    26    24    25    1
    27    38    18    1
    28    29    28    1
    29    28    30    1
    30    28    31    1
    31    10    18   ar
    32    10    11   ar
    33    18    16   ar
    34    37    11    1
    35    11    12   ar
    36    16    17    1
    37    16    14   ar
    38    12    14   ar
    39    12    13    1
    40    14    15    1
