@<TRIPOS>MOLECULE
C27 H27 Br F N O4
 61 64 0 0 0
SMALL
GASTEIGER

@<TRIPOS>ATOM
      1 C           5.8439    2.8921    4.4869 C.2     1  LIG1        0.2487
      2 C           4.8038    2.8715    3.4119 C.2     1  LIG1        0.0843
      3 C           4.5328    1.5913    3.1898 C.2     1  LIG1        0.1450
      4 C           5.3294    0.6351    4.0274 C.3     1  LIG1        0.0936
      5 C           4.2026    4.0741    2.7590 C.ar    1  LIG1       -0.0065
      6 C           4.9767    5.0620    2.1390 C.ar    1  LIG1       -0.0425
      7 C           4.2906    6.1196    1.5345 C.ar    1  LIG1       -0.0580
      8 H           4.7799    6.7972    1.1278 H       1  LIG1        0.0620
      9 C           2.9281    6.1915    1.5213 C.ar    1  LIG1       -0.0586
     10 H           2.5145    6.9174    1.1124 H       1  LIG1        0.0620
     11 C           2.1453    5.2047    2.1060 C.ar    1  LIG1       -0.0499
     12 C           2.8208    4.1529    2.7359 C.ar    1  LIG1       -0.0506
     13 H           2.3244    3.4856    3.1525 H       1  LIG1        0.0626
     14 C           6.4877    5.0144    2.0786 C.3     1  LIG1       -0.0391
     15 H           6.8520    5.3937    2.8810 H       1  LIG1        0.0278
     16 H           6.7937    5.5162    1.3190 H       1  LIG1        0.0278
     17 H           6.7755    4.1023    1.9961 H       1  LIG1        0.0278
     18 C           0.6474    5.2124    2.0225 C.3     1  LIG1       -0.0397
     19 H           0.3244    6.1094    2.1291 H       1  LIG1        0.0278
     20 H           0.2861    4.6582    2.7183 H       1  LIG1        0.0278
     21 H           0.3723    4.8713    1.1684 H       1  LIG1        0.0278
     22 C           3.7839    1.3620    0.9706 C.2     1  LIG1        0.3370
     23 C           2.5319    1.3623    0.2187 C.2     1  LIG1        0.0235
     24 H           2.5743    1.2509   -0.7035 H       1  LIG1        0.0689
     25 C           1.3403    1.5136    0.7749 C.2     1  LIG1       -0.0468
     26 H           1.3124    1.5023    1.7048 H       1  LIG1        0.0626
     27 C           0.0621    1.6946    0.0879 C.ar    1  LIG1       -0.0107
     28 C          -1.1413    1.8306    0.7914 C.ar    1  LIG1        0.0277
     29 C          -2.3532    1.9980    0.1473 C.ar    1  LIG1       -0.0119
     30 H          -3.1457    2.0749    0.6276 H       1  LIG1        0.0657
     31 C          -2.3486    2.0466   -1.2179 C.ar    1  LIG1        0.1245
     32 C          -1.2151    1.9418   -1.9719 C.ar    1  LIG1       -0.0258
     33 H          -1.2469    1.9913   -2.9008 H       1  LIG1        0.0646
     34 C          -0.0125    1.7572   -1.3036 C.ar    1  LIG1       -0.0508
     35 H           0.7695    1.6728   -1.7994 H       1  LIG1        0.0625
     36 C           6.2166   -0.2713    3.1690 C.3     1  LIG1       -0.0221
     37 H           5.6578   -0.7877    2.5677 H       1  LIG1        0.0291
     38 H           6.8047    0.2789    2.6282 H       1  LIG1        0.0291
     39 C           7.0590   -1.2248    4.0164 C.3     1  LIG1       -0.0243
     40 H           7.5766   -1.8029    3.4339 H       1  LIG1        0.0291
     41 H           7.6790   -0.7131    4.5594 H       1  LIG1        0.0291
     42 C           6.1754   -2.0722    4.9167 C.3     1  LIG1        0.0585
     43 H           5.6164   -2.6547    4.3605 H       1  LIG1        0.0596
     44 C           5.2842   -1.2039    5.7674 C.3     1  LIG1       -0.0243
     45 H           5.8312   -0.6966    6.3874 H       1  LIG1        0.0291
     46 H           4.6909   -1.7685    6.2873 H       1  LIG1        0.0291
     47 C           4.4493   -0.2386    4.9288 C.3     1  LIG1       -0.0221
     48 H           3.9294    0.3304    5.5168 H       1  LIG1        0.0291
     49 H           3.8316   -0.7444    4.3781 H       1  LIG1        0.0291
     50 C           7.5932   -3.9783    5.2343 C.3     1  LIG1        0.0368
     51 H           6.9691   -4.4825    4.7067 H       1  LIG1        0.0524
     52 H           7.9544   -4.5394    5.9246 H       1  LIG1        0.0524
     53 H           8.3049   -3.6624    4.6726 H       1  LIG1        0.0524
     54 N           6.1115    1.6092    4.8067 N.am    1  LIG1       -0.2987
     55 H           6.6836    1.3823    5.4080 H       1  LIG1        0.1500
     56 O           6.3494    3.8876    4.9991 O.2     1  LIG1       -0.2700
     57 O           6.9328   -2.8783    5.8202 O.3     1  LIG1       -0.3798
     58 O           3.5843    1.1000    2.3116 O.3     1  LIG1       -0.4242
     59 O           4.8645    1.5897    0.5232 O.2     1  LIG1       -0.2452
     60 F          -3.5343    2.1985   -1.8653 F       1  LIG1       -0.2055
     61 BR         -1.1813    1.7647    2.6938 Br      1  LIG1       -0.0496
@<TRIPOS>BOND
     1    33    32    1
     2    32    34   ar
     3    32    31   ar
     4    60    31    1
     5    35    34    1
     6    34    27   ar
     7    31    29   ar
     8    24    23    1
     9    27    25    1
    10    27    28   ar
    11    29    30    1
    12    29    28   ar
    13    23    25    2
    14    23    22    1
    15    59    22    2
    16    25    26    1
    17    28    61    1
    18    22    58    1
    19    10     9    1
    20     8     7    1
    21    21    18    1
    22    16    14    1
    23     9     7   ar
    24     9    11   ar
    25     7     6   ar
    26    17    14    1
    27    18    11    1
    28    18    19    1
    29    18    20    1
    30    14     6    1
    31    14    15    1
    32    11    12   ar
    33     6     5   ar
    34    58     3    1
    35    37    36    1
    36    38    36    1
    37    12     5   ar
    38    12    13    1
    39     5     2    1
    40    36    39    1
    41    36     4    1
    42     3     2    2
    43     3     4    1
    44     2     1    1
    45    40    39    1
    46    39    41    1
    47    39    42    1
    48     4    54    1
    49     4    47    1
    50    43    42    1
    51    49    47    1
    52     1    54   am
    53     1    56    2
    54    53    50    1
    55    51    50    1
    56    54    55    1
    57    42    44    1
    58    42    57    1
    59    47    48    1
    60    47    44    1
    61    50    57    1
    62    50    52    1
    63    44    46    1
    64    44    45    1
