@<TRIPOS>MOLECULE
1-Nitro-4-(4-nitrophenoxy)benzene
 27 28 0 0 0
SMALL
GASTEIGER

@<TRIPOS>ATOM
      1 O           3.2290    2.3374    1.1810 O.3     1  LIG1       -0.4560
      2 C           2.5440    1.5035    0.3172 C.ar    1  LIG1        0.1286
      3 C           2.5101    0.1683    0.6984 C.ar    1  LIG1       -0.0172
      4 H           2.8741   -0.0975    1.5341 H       1  LIG1        0.0655
      5 C           1.9470   -0.7674   -0.1387 C.ar    1  LIG1       -0.0280
      6 H           1.9194   -1.6842    0.1094 H       1  LIG1        0.0641
      7 C           1.4243   -0.3497   -1.3466 C.ar    1  LIG1        0.1264
      8 N           0.8636   -1.3474   -2.2545 N.pl3   1  LIG1        0.0564
      9 O           0.3726   -0.9594   -3.3181 O.2     1  LIG1       -0.1261
     10 O           0.9262   -2.5329   -1.9231 O.2     1  LIG1       -0.1261
     11 C           1.4343    0.9813   -1.7304 C.ar    1  LIG1       -0.0280
     12 H           1.0515    1.2465   -2.5581 H       1  LIG1        0.0641
     13 C           2.0085    1.9190   -0.8934 C.ar    1  LIG1       -0.0172
     14 H           2.0357    2.8356   -1.1429 H       1  LIG1        0.0655
     15 C           2.9697    3.6917    1.2359 C.ar    1  LIG1        0.1286
     16 C           4.0555    4.5009    1.5316 C.ar    1  LIG1       -0.0172
     17 H           4.9185    4.1202    1.6459 H       1  LIG1        0.0655
     18 C           3.8755    5.8631    1.6589 C.ar    1  LIG1       -0.0280
     19 H           4.6131    6.4324    1.8457 H       1  LIG1        0.0641
     20 C           2.6082    6.3854    1.5108 C.ar    1  LIG1        0.1264
     21 N           2.4141    7.8355    1.6264 N.pl3   1  LIG1        0.0564
     22 O           1.2688    8.2694    1.6553 O.2     1  LIG1       -0.1261
     23 O           3.4021    8.5548    1.6814 O.2     1  LIG1       -0.1261
     24 C           1.5106    5.5872    1.2418 C.ar    1  LIG1       -0.0280
     25 H           0.6442    5.9685    1.1595 H       1  LIG1        0.0641
     26 C           1.6946    4.2237    1.0955 C.ar    1  LIG1       -0.0172
     27 H           0.9570    3.6575    0.9015 H       1  LIG1        0.0655
@<TRIPOS>BOND
     1     9     8    2
     2    12    11    1
     3     8    10    2
     4     8     7    1
     5    11     7   ar
     6    11    13   ar
     7     7     5   ar
     8    14    13    1
     9    13     2   ar
    10     5     6    1
    11     5     3   ar
    12     2     3   ar
    13     2     1    1
    14     3     4    1
    15    27    26    1
    16    26    15   ar
    17    26    24   ar
    18    25    24    1
    19     1    15    1
    20    15    16   ar
    21    24    20   ar
    22    20    21    1
    23    20    18   ar
    24    16    17    1
    25    16    18   ar
    26    21    22    2
    27    21    23    2
    28    18    19    1
