@<TRIPOS>MOLECULE
4-Chloro-3-methylphenyl quinoline-2-carboxylate
 33 35 0 0 0
SMALL
GASTEIGER

@<TRIPOS>ATOM
      1 CL          5.0048   -0.9654   13.3431 Cl      1  LIG1       -0.0833
      2 O           2.7720    0.3932    7.5264 O.2     1  LIG1       -0.2428
      3 O           4.3367    1.8400    8.2254 O.3     1  LIG1       -0.4213
      4 N           2.8123    1.6548    5.0598 N.ar    1  LIG1       -0.2401
      5 C           3.4435    1.3563    7.3340 C.2     1  LIG1        0.3630
      6 C           3.4357    2.2004    6.0828 C.ar    1  LIG1        0.1487
      7 C           4.0948    3.4511    6.0511 C.ar    1  LIG1       -0.0287
      8 H           4.4871    3.8039    6.8170 H       1  LIG1        0.0641
      9 C           4.1382    4.1256    4.8644 C.ar    1  LIG1       -0.0503
     10 H           4.5592    4.9538    4.8129 H       1  LIG1        0.0625
     11 C           3.5419    3.5633    3.7159 C.ar    1  LIG1        0.0004
     12 C           3.6063    4.1680    2.4306 C.ar    1  LIG1       -0.0526
     13 H           4.0467    4.9802    2.3200 H       1  LIG1        0.0624
     14 C           3.0232    3.5574    1.3616 C.ar    1  LIG1       -0.0611
     15 H           3.0914    3.9439    0.5185 H       1  LIG1        0.0618
     16 C           2.3145    2.3393    1.5170 C.ar    1  LIG1       -0.0597
     17 H           1.9129    1.9420    0.7793 H       1  LIG1        0.0618
     18 C           2.2184    1.7460    2.7426 C.ar    1  LIG1       -0.0357
     19 H           1.7314    0.9597    2.8385 H       1  LIG1        0.0639
     20 C           2.8573    2.3240    3.8707 C.ar    1  LIG1        0.0719
     21 C           4.4615    1.1262    9.4354 C.ar    1  LIG1        0.1323
     22 C           3.8443    1.6382   10.5558 C.ar    1  LIG1       -0.0149
     23 H           3.3303    2.4099   10.4885 H       1  LIG1        0.0657
     24 C           3.9862    1.0020   11.7963 C.ar    1  LIG1       -0.0287
     25 C           4.7748   -0.1422   11.8222 C.ar    1  LIG1        0.0441
     26 C           5.4114   -0.6487   10.7033 C.ar    1  LIG1       -0.0397
     27 H           5.9402   -1.4108   10.7671 H       1  LIG1        0.0633
     28 C           5.2501   -0.0050    9.4806 C.ar    1  LIG1       -0.0178
     29 H           5.6641   -0.3291    8.7138 H       1  LIG1        0.0655
     30 C           3.3047    1.5328   13.0233 C.3     1  LIG1       -0.0382
     31 H           2.8410    2.3453   12.8055 H       1  LIG1        0.0278
     32 H           3.9599    1.7111   13.7025 H       1  LIG1        0.0278
     33 H           2.6766    0.8831   13.3464 H       1  LIG1        0.0278
@<TRIPOS>BOND
     1    15    14    1
     2    17    16    1
     3    14    16   ar
     4    14    12   ar
     5    16    18   ar
     6    13    12    1
     7    12    11   ar
     8    18    19    1
     9    18    20   ar
    10    11    20   ar
    11    11     9   ar
    12    20     4   ar
    13    10     9    1
    14     9     7   ar
    15     4     6   ar
    16     7     6   ar
    17     7     8    1
    18     6     5    1
    19     5     2    2
    20     5     3    1
    21     3    21    1
    22    29    28    1
    23    21    28   ar
    24    21    22   ar
    25    28    26   ar
    26    23    22    1
    27    22    24   ar
    28    26    27    1
    29    26    25   ar
    30    24    25   ar
    31    24    30    1
    32    25     1    1
    33    31    30    1
    34    30    33    1
    35    30    32    1
