@<TRIPOS>MOLECULE
2-Hydroxy-2,2a,6,9a-tetramethyl-2a,4a,5,6,6a,9a,9b,9c-octahydro-2<i>H</i>- 1,4-dioxadicyclopent[<i>cd</i>,<i>f</i>]azulene-3,9-dione 0.25-hydrate
 90 95 0 0 0
SMALL
GASTEIGER

@<TRIPOS>ATOM
      1 O           7.1925   11.0011    4.0355 O.3     1  LIG1       -0.3433
      2 O          10.1921    8.3198    4.4732 O.3     1  LIG1       -0.4604
      3 O           9.3491   11.1603    4.9226 O.3     1  LIG1       -0.3638
      4 H           9.3343   11.9697    4.6932 H       1  LIG1        0.2128
      5 O           9.9178    8.4642    6.6809 O.2     1  LIG1       -0.2500
      6 O           5.5044   11.7036    1.3627 O.2     1  LIG1       -0.2920
      7 C           8.0956    9.1488    5.1867 C.3     1  LIG1        0.1264
      8 C           8.0281   10.7115    5.1520 C.3     1  LIG1        0.1808
      9 C           7.1376    9.9057    3.1053 C.3     1  LIG1        0.0822
     10 H           6.1986    9.5610    3.1032 H       1  LIG1        0.0611
     11 C           8.0270    8.8112    3.7040 C.3     1  LIG1        0.0439
     12 H           7.6103    7.9127    3.5704 H       1  LIG1        0.0374
     13 C           9.4978    8.7882    3.2684 C.3     1  LIG1        0.1097
     14 H           9.7880    9.7256    3.0779 H       1  LIG1        0.0738
     15 C           9.4831    8.6401    5.5792 C.2     1  LIG1        0.3190
     16 C           6.9973    8.5226    6.0432 C.3     1  LIG1       -0.0439
     17 H           6.1268    8.8801    5.7718 H       1  LIG1        0.0242
     18 H           7.1577    8.7354    6.9861 H       1  LIG1        0.0242
     19 H           7.0036    7.5495    5.9222 H       1  LIG1        0.0242
     20 C           7.4531   11.4060    6.3642 C.3     1  LIG1       -0.0096
     21 H           7.9986   11.1952    7.1513 H       1  LIG1        0.0281
     22 H           6.5341   11.0987    6.5115 H       1  LIG1        0.0281
     23 H           7.4531   12.3754    6.2169 H       1  LIG1        0.0281
     24 C           7.4900   10.2956    1.6489 C.3     1  LIG1        0.0632
     25 C           6.2767   10.8587    0.8944 C.2     1  LIG1        0.1647
     26 C           6.2545   10.2788   -0.4188 C.2     1  LIG1       -0.0222
     27 H           5.6795   10.5483   -1.1249 H       1  LIG1        0.0649
     28 C           7.1672    9.2989   -0.5019 C.2     1  LIG1       -0.0763
     29 H           7.3518    8.8234   -1.3038 H       1  LIG1        0.0576
     30 C           7.8741    9.0254    0.8113 C.3     1  LIG1       -0.0050
     31 H           7.3813    8.2645    1.2312 H       1  LIG1        0.0356
     32 C           9.3459    8.5896    0.7513 C.3     1  LIG1       -0.0333
     33 H           9.9019    9.4050    0.5998 H       1  LIG1        0.0305
     34 C           9.8091    7.9359    2.0698 C.3     1  LIG1       -0.0121
     35 H           9.3638    7.0587    2.1709 H       1  LIG1        0.0304
     36 H          10.7861    7.7793    2.0288 H       1  LIG1        0.0304
     37 C           8.5124   11.4508    1.5395 C.3     1  LIG1       -0.0495
     38 H           8.7128   11.6208    0.5956 H       1  LIG1        0.0240
     39 H           9.3364   11.2037    2.0088 H       1  LIG1        0.0240
     40 H           8.1357   12.2591    1.9446 H       1  LIG1        0.0240
     41 C           9.6339    7.6068   -0.3862 C.3     1  LIG1       -0.0617
     42 H           9.0568    6.8204   -0.2925 H       1  LIG1        0.0233
     43 H          10.5730    7.3282   -0.3473 H       1  LIG1        0.0233
     44 H           9.4577    8.0403   -1.2470 H       1  LIG1        0.0233
     45 O           2.3961   13.3744    6.9745 O.3     2  LIG2       -0.3433
     46 O           3.2138    9.5857    7.8469 O.3     2  LIG2       -0.4604
     47 O           3.9597   12.4878    8.3940 O.3     2  LIG2       -0.3638
     48 H           4.3575   13.1443    8.7360 H       2  LIG2        0.2128
     49 O           2.5512    9.9151    9.9598 O.2     2  LIG2       -0.2500
     50 O           1.3822   14.6357    4.0955 O.2     2  LIG2       -0.2920
     51 C           1.7810   11.4352    8.2130 C.3     2  LIG2        0.1264
     52 C           2.5786   12.7973    8.2415 C.3     2  LIG2        0.1808
     53 C           1.8010   12.4736    6.0496 C.3     2  LIG2        0.0822
     54 H           0.8430   12.7414    5.9422 H       2  LIG2        0.0611
     55 C           1.8253   11.1072    6.7325 C.3     2  LIG2        0.0439
     56 H           1.0298   10.5625    6.4663 H       2  LIG2        0.0374
     57 C           3.1135   10.2967    6.5768 C.3     2  LIG2        0.1097
     58 H           3.8859   10.9257    6.4936 H       2  LIG2        0.0738
     59 C           2.5417   10.2814    8.8107 C.2     2  LIG2        0.3190
     60 C           0.3714   11.5186    8.7907 C.3     2  LIG2       -0.0439
     61 H          -0.1108   10.6874    8.5982 H       2  LIG2        0.0242
     62 H          -0.1045   12.2733    8.3835 H       2  LIG2        0.0242
     63 H           0.4220   11.6491    9.7599 H       2  LIG2        0.0242
     64 C           2.1661   13.8084    9.2769 C.3     2  LIG2       -0.0096
     65 H           2.7453   14.5969    9.2127 H       2  LIG2        0.0281
     66 H           2.2505   13.4138   10.1703 H       2  LIG2        0.0281
     67 H           1.2355   14.0749    9.1233 H       2  LIG2        0.0281
     68 C           2.4541   12.5142    4.6563 C.3     2  LIG2        0.0632
     69 C           1.7535   13.5230    3.7461 C.2     2  LIG2        0.1647
     70 C           1.6417   12.9536    2.4308 C.2     2  LIG2       -0.0222
     71 H           1.3589   13.4223    1.6542 H       2  LIG2        0.0649
     72 C           1.9952   11.6713    2.4634 C.2     2  LIG2       -0.0763
     73 H           2.0743   11.1271    1.6889 H       2  LIG2        0.0576
     74 C           2.2568   11.1745    3.8640 C.3     2  LIG2       -0.0050
     75 H           1.3916   10.7895    4.1860 H       2  LIG2        0.0356
     76 C           3.3193   10.0592    4.0607 C.3     2  LIG2       -0.0333
     77 H           4.2245   10.4831    4.0565 H       2  LIG2        0.0305
     78 C           3.1262    9.3468    5.4045 C.3     2  LIG2       -0.0121
     79 H           2.2705    8.8489    5.3856 H       2  LIG2        0.0304
     80 H           3.8563    8.6900    5.5297 H       2  LIG2        0.0304
     81 C           3.9449   12.9831    4.6742 C.3     2  LIG2       -0.0495
     82 H           4.3395   12.8492    3.7882 H       2  LIG2        0.0240
     83 H           4.4429   12.4605    5.3361 H       2  LIG2        0.0240
     84 H           3.9850   13.9330    4.9110 H       2  LIG2        0.0240
     85 C           3.2655    9.0288    2.9306 C.3     2  LIG2       -0.0617
     86 H           3.9059    8.3099    3.1147 H       2  LIG2        0.0233
     87 H           3.4955    9.4617    2.0825 H       2  LIG2        0.0233
     88 H           2.3623    8.6532    2.8727 H       2  LIG2        0.0233
     89 O           5.2754   14.1855   -0.1147 O.3     3  HOH3       -0.2528
     90 H           5.1593   13.3883    0.4525 H       0  HOH0        0.2528
@<TRIPOS>BOND
     1    29    28    1
     2    44    41    1
     3    27    26    1
     4    28    26    2
     5    28    30    1
     6    26    25    1
     7    41    43    1
     8    41    42    1
     9    41    32    1
    10    89    90    1
    11    38    37    1
    12    33    32    1
    13    32    30    1
    14    32    34    1
    15    30    31    1
    16    30    24    1
    17    25     6    2
    18    25    24    1
    19    37    24    1
    20    37    40    1
    21    37    39    1
    22    24     9    1
    23    71    70    1
    24    73    72    1
    25    36    34    1
    26    34    35    1
    27    34    13    1
    28    87    85    1
    29    70    72    2
    30    70    69    1
    31    72    74    1
    32    88    85    1
    33    85    86    1
    34    85    76    1
    35    14    13    1
    36    10     9    1
    37     9    11    1
    38     9     1    1
    39    13    11    1
    40    13     2    1
    41    12    11    1
    42    11     7    1
    43    69    50    2
    44    69    68    1
    45    82    81    1
    46    74    76    1
    47    74    75    1
    48    74    68    1
    49     1     8    1
    50    77    76    1
    51    76    78    1
    52     2    15    1
    53    68    81    1
    54    68    53    1
    55    81    84    1
    56    81    83    1
    57     4     3    1
    58     3     8    1
    59     8     7    1
    60     8    20    1
    61     7    15    1
    62     7    16    1
    63    79    78    1
    64    78    80    1
    65    78    57    1
    66    15     5    2
    67    17    16    1
    68    19    16    1
    69    54    53    1
    70    16    18    1
    71    53    55    1
    72    53    45    1
    73    23    20    1
    74    20    22    1
    75    20    21    1
    76    56    55    1
    77    58    57    1
    78    57    55    1
    79    57    46    1
    80    55    51    1
    81    45    52    1
    82    46    59    1
    83    51    52    1
    84    51    60    1
    85    51    59    1
    86    52    47    1
    87    52    64    1
    88    62    60    1
    89    47    48    1
    90    61    60    1
    91    60    63    1
    92    59    49    2
    93    67    64    1
    94    65    64    1
    95    64    66    1
