@<TRIPOS>MOLECULE
<i>r</i>-2,<i>c</i>-6-Diphenylpiperidine
 37 39 0 0 0
SMALL
GASTEIGER

@<TRIPOS>ATOM
      1 C           2.2342    3.6245    1.5572 C.3     1  LIG1        0.0334
      2 H           3.1353    3.4804    1.1997 H       1  LIG1        0.0510
      3 C           1.2223    3.3169    0.4634 C.3     1  LIG1       -0.0333
      4 H           0.3265    3.4817    0.7968 H       1  LIG1        0.0283
      5 H           1.3745    3.9057   -0.2922 H       1  LIG1        0.0283
      6 C           1.3347    1.8698    0.0079 C.3     1  LIG1       -0.0496
      7 H           2.1848    1.7365   -0.4405 H       1  LIG1        0.0266
      8 H           0.6268    1.6738   -0.6253 H       1  LIG1        0.0266
      9 C           1.2320    0.9223    1.1938 C.3     1  LIG1       -0.0333
     10 H           1.3979    0.0147    0.8953 H       1  LIG1        0.0283
     11 H           0.3337    0.9581    1.5571 H       1  LIG1        0.0283
     12 C           2.2323    1.2863    2.2819 C.3     1  LIG1        0.0334
     13 H           3.1366    1.2022    1.9146 H       1  LIG1        0.0510
     14 C           2.1233    0.3978    3.4945 C.ar    1  LIG1       -0.0305
     15 C           3.0921   -0.5396    3.7852 C.ar    1  LIG1       -0.0571
     16 H           3.8345   -0.6187    3.2305 H       1  LIG1        0.0621
     17 C           2.9759   -1.3635    4.8878 C.ar    1  LIG1       -0.0615
     18 H           3.6399   -1.9887    5.0687 H       1  LIG1        0.0618
     19 C           1.8892   -1.2675    5.7176 C.ar    1  LIG1       -0.0617
     20 H           1.8128   -1.8257    6.4576 H       1  LIG1        0.0618
     21 C           0.9165   -0.3396    5.4446 C.ar    1  LIG1       -0.0615
     22 H           0.1766   -0.2651    6.0039 H       1  LIG1        0.0618
     23 C           1.0320    0.4809    4.3461 C.ar    1  LIG1       -0.0571
     24 H           0.3646    1.1043    4.1712 H       1  LIG1        0.0621
     25 C           2.1412    5.0390    2.0671 C.ar    1  LIG1       -0.0305
     26 C           1.0560    5.4485    2.8249 C.ar    1  LIG1       -0.0571
     27 H           0.3694    4.8468    3.0036 H       1  LIG1        0.0621
     28 C           0.9782    6.7301    3.3168 C.ar    1  LIG1       -0.0615
     29 H           0.2446    6.9878    3.8281 H       1  LIG1        0.0618
     30 C           1.9860    7.6359    3.0542 C.ar    1  LIG1       -0.0617
     31 H           1.9364    8.5019    3.3898 H       1  LIG1        0.0618
     32 C           3.0573    7.2511    2.2972 C.ar    1  LIG1       -0.0615
     33 H           3.7331    7.8616    2.1116 H       1  LIG1        0.0618
     34 C           3.1442    5.9624    1.8061 C.ar    1  LIG1       -0.0571
     35 H           3.8809    5.7113    1.2971 H       1  LIG1        0.0621
     36 N           2.0129    2.6836    2.6627 N.3     1  LIG1       -0.3026
     37 H           2.5358    2.8997    3.3500 H       1  LIG1        0.1231
@<TRIPOS>BOND
     1     8     6    1
     2     7     6    1
     3     5     3    1
     4     6     3    1
     5     6     9    1
     6     3     4    1
     7     3     1    1
     8    10     9    1
     9     9    11    1
    10     9    12    1
    11     2     1    1
    12    35    34    1
    13     1    25    1
    14     1    36    1
    15    34    25   ar
    16    34    32   ar
    17    13    12    1
    18    25    26   ar
    19    33    32    1
    20    12    36    1
    21    12    14    1
    22    32    30   ar
    23    36    37    1
    24    26    27    1
    25    26    28   ar
    26    30    28   ar
    27    30    31    1
    28    16    15    1
    29    28    29    1
    30    14    15   ar
    31    14    23   ar
    32    15    17   ar
    33    24    23    1
    34    23    21   ar
    35    17    18    1
    36    17    19   ar
    37    21    19   ar
    38    21    22    1
    39    19    20    1
