@<TRIPOS>MOLECULE
1-(2,4-Dichlorobenzyl)-4-[(4-methylphenyl)sulfonyl]piperazine
 45 47 0 0 0
SMALL
GASTEIGER

@<TRIPOS>ATOM
      1 C          17.0197    2.3115   10.2407 C.ar    1  LIG1        0.1055
      2 O          17.7480   -0.1431   10.5845 O.2     1  LIG1       -0.1528
      3 N          12.7657   -0.3655    9.5485 N.3     1  LIG1       -0.2956
      4 C          16.6399    3.4931   10.8377 C.ar    1  LIG1       -0.0351
      5 H          16.2396    3.4863   11.6770 H       1  LIG1        0.0637
      6 N          15.3141    0.1953   10.6115 N.3     1  LIG1       -0.1741
      7 C          16.8548    4.6831   10.1816 C.ar    1  LIG1       -0.0570
      8 H          16.5947    5.4781   10.5887 H       1  LIG1        0.0621
      9 C          17.4485    4.7250    8.9328 C.ar    1  LIG1       -0.0503
     10 C          17.8297    3.5277    8.3619 C.ar    1  LIG1       -0.0570
     11 H          18.2383    3.5328    7.5261 H       1  LIG1        0.0621
     12 C          17.6217    2.3272    8.9973 C.ar    1  LIG1       -0.0351
     13 H          17.8833    1.5312    8.5931 H       1  LIG1        0.0637
     14 O          16.6845    1.0444   12.4659 O.2     1  LIG1       -0.1528
     15 C          17.7059    6.0303    8.2219 C.3     1  LIG1       -0.0397
     16 H          18.6527    6.1910    8.1807 H       1  LIG1        0.0278
     17 H          17.2807    6.7447    8.7022 H       1  LIG1        0.0278
     18 H          17.3514    5.9852    7.3319 H       1  LIG1        0.0278
     19 C          14.1241    0.8810   11.1265 C.3     1  LIG1        0.0333
     20 H          13.9864    1.7101   10.6446 H       1  LIG1        0.0456
     21 H          14.2452    1.0902   12.0655 H       1  LIG1        0.0456
     22 C          12.9298   -0.0191   10.9506 C.3     1  LIG1        0.0137
     23 H          13.0486   -0.8256   11.4735 H       1  LIG1        0.0440
     24 H          12.1334    0.4312   11.2699 H       1  LIG1        0.0440
     25 C          13.9391   -1.0677    9.0629 C.3     1  LIG1        0.0137
     26 H          13.8124   -1.3107    8.1328 H       1  LIG1        0.0440
     27 H          14.0670   -1.8840    9.5736 H       1  LIG1        0.0440
     28 C          15.1615   -0.1877    9.1978 C.3     1  LIG1        0.0333
     29 H          15.9497   -0.6664    8.8978 H       1  LIG1        0.0456
     30 H          15.0600    0.6051    8.6490 H       1  LIG1        0.0456
     31 C          11.4885   -1.0194    9.2448 C.3     1  LIG1        0.0255
     32 H          11.4757   -1.2372    8.3004 H       1  LIG1        0.0476
     33 H          10.7755   -0.3822    9.4047 H       1  LIG1        0.0476
     34 C          11.1866   -2.2789   10.0288 C.ar    1  LIG1       -0.0150
     35 C          11.5209   -3.5661    9.6142 C.ar    1  LIG1        0.0467
     36 C          11.2983   -4.6770   10.3896 C.ar    1  LIG1       -0.0247
     37 H          11.5521   -5.5197   10.0925 H       1  LIG1        0.0647
     38 C          10.6932   -4.5197   11.6142 C.ar    1  LIG1        0.0424
     39 C          10.2916   -3.2783   12.0543 C.ar    1  LIG1       -0.0430
     40 H           9.8618   -3.1800   12.8730 H       1  LIG1        0.0632
     41 C          10.5399   -2.1854   11.2553 C.ar    1  LIG1       -0.0546
     42 H          10.2635   -1.3475   11.5493 H       1  LIG1        0.0622
     43 S          16.7681    0.7781   11.0681 S.O2    1  LIG1        0.0609
     44 CL         12.2113   -3.8310    8.0355 Cl      1  LIG1       -0.0832
     45 CL         10.4325   -5.9120   12.6142 Cl      1  LIG1       -0.0835
@<TRIPOS>BOND
     1    18    15    1
     2    11    10    1
     3    44    35    1
     4    26    25    1
     5    16    15    1
     6    15    17    1
     7    15     9    1
     8    32    31    1
     9    10     9   ar
    10    10    12   ar
    11    13    12    1
    12    30    28    1
    13    29    28    1
    14     9     7   ar
    15    12     1   ar
    16    25    28    1
    17    25     3    1
    18    25    27    1
    19    28     6    1
    20    31    33    1
    21    31     3    1
    22    31    34    1
    23     3    22    1
    24    35    34   ar
    25    35    36   ar
    26    34    41   ar
    27    37    36    1
    28     7     8    1
    29     7     4   ar
    30     1     4   ar
    31     1    43    1
    32    36    38   ar
    33     2    43    2
    34     6    43    1
    35     6    19    1
    36    20    19    1
    37     4     5    1
    38    22    19    1
    39    22    24    1
    40    22    23    1
    41    43    14    2
    42    19    21    1
    43    41    42    1
    44    41    39   ar
    45    38    39   ar
    46    38    45    1
    47    39    40    1
