@<TRIPOS>MOLECULE
<i>N</i>-(2-Bromo-4-methylphenyl)-2-(5-methyl-2-phenylpyrazolo[1,5-<i>a</i>]pyrimidin-7-yl)acetamide
 47 50 0 0 0
SMALL
GASTEIGER

@<TRIPOS>ATOM
      1 C           6.1099    6.0330   -1.0517 C.ar    1  LIG1       -0.0187
      2 H           6.7890    6.3349   -1.6107 H       1  LIG1        0.0653
      3 C           4.8970    5.5372   -1.6180 C.ar    1  LIG1        0.0423
      4 C           4.0547    5.1361    0.4622 C.ar    1  LIG1        0.1566
      5 C           3.2236    4.8182    1.5088 C.ar    1  LIG1        0.0102
      6 H           2.3562    4.4879    1.4543 H       1  LIG1        0.0677
      7 C           3.9482    5.0946    2.6732 C.ar    1  LIG1        0.0953
      8 C           6.2846    6.0694    0.2957 C.ar    1  LIG1        0.0556
      9 C           7.5006    6.6025    1.0064 C.3     1  LIG1        0.0667
     10 H           7.2130    7.1056    1.7834 H       1  LIG1        0.0422
     11 H           7.9651    7.2142    0.4155 H       1  LIG1        0.0422
     12 C           8.4716    5.5204    1.4548 C.2     1  LIG1        0.2230
     13 C           8.6264    3.5225    2.8710 C.ar    1  LIG1        0.0475
     14 C           8.5795    3.1652    4.2065 C.ar    1  LIG1        0.0393
     15 C           9.1466    1.9818    4.6652 C.ar    1  LIG1       -0.0430
     16 H           9.0896    1.7616    5.5661 H       1  LIG1        0.0632
     17 C           9.7960    1.1309    3.7889 C.ar    1  LIG1       -0.0493
     18 C           9.8412    1.4853    2.4517 C.ar    1  LIG1       -0.0570
     19 H          10.2715    0.9224    1.8482 H       1  LIG1        0.0621
     20 C           9.2637    2.6548    1.9874 C.ar    1  LIG1       -0.0391
     21 H           9.3014    2.8619    1.0819 H       1  LIG1        0.0636
     22 C          10.4432   -0.1480    4.2708 C.3     1  LIG1       -0.0397
     23 H          11.2389    0.0620    4.7648 H       1  LIG1        0.0278
     24 H          10.6694   -0.6963    3.5156 H       1  LIG1        0.0278
     25 H           9.8304   -0.6227    4.8376 H       1  LIG1        0.0278
     26 C           4.7165    5.5401   -3.1068 C.3     1  LIG1       -0.0222
     27 H           5.0787    6.3502   -3.4724 H       1  LIG1        0.0293
     28 H           3.7806    5.4854   -3.3159 H       1  LIG1        0.0293
     29 H           5.1735    4.7854   -3.4859 H       1  LIG1        0.0293
     30 C           3.5455    4.9181    4.0781 C.ar    1  LIG1        0.0022
     31 C           2.4627    4.1175    4.4224 C.ar    1  LIG1       -0.0525
     32 H           1.9741    3.6924    3.7557 H       1  LIG1        0.0624
     33 C           2.1053    3.9483    5.7442 C.ar    1  LIG1       -0.0611
     34 H           1.3820    3.4051    5.9600 H       1  LIG1        0.0618
     35 C           2.8091    4.5754    6.7481 C.ar    1  LIG1       -0.0617
     36 H           2.5633    4.4595    7.6382 H       1  LIG1        0.0618
     37 C           3.8825    5.3782    6.4206 C.ar    1  LIG1       -0.0611
     38 H           4.3622    5.8084    7.0905 H       1  LIG1        0.0618
     39 C           4.2458    5.5445    5.0985 C.ar    1  LIG1       -0.0525
     40 H           4.9737    6.0848    4.8889 H       1  LIG1        0.0624
     41 N           3.9018    5.0997   -0.8855 N.ar    1  LIG1       -0.2329
     42 N           5.1902    5.5707    2.3997 N.ar    1  LIG1       -0.1647
     43 N           5.2371    5.5997    1.0420 N.ar    1  LIG1       -0.2176
     44 N           7.9807    4.6870    2.4002 N.am    1  LIG1       -0.2842
     45 H           7.2158    4.8817    2.7412 H       1  LIG1        0.1548
     46 O           9.5967    5.4486    1.0018 O.2     1  LIG1       -0.2751
     47 BR          7.6959    4.2989    5.4436 Br      1  LIG1       -0.0484
@<TRIPOS>BOND
     1    29    26    1
     2    27    26    1
     3    28    26    1
     4    26     3    1
     5     3     1   ar
     6     3    41   ar
     7     2     1    1
     8     1     8   ar
     9    41     4   ar
    10     8     9    1
    11     8    43   ar
    12    11     9    1
    13     4    43   ar
    14     4     5   ar
    15    46    12    2
    16     9    12    1
    17     9    10    1
    18    43    42   ar
    19    21    20    1
    20     6     5    1
    21    12    44   am
    22     5     7   ar
    23    19    18    1
    24    20    18   ar
    25    20    13   ar
    26    42     7   ar
    27    44    45    1
    28    44    13    1
    29    18    17   ar
    30     7    30    1
    31    13    14   ar
    32    24    22    1
    33    32    31    1
    34    17    22    1
    35    17    15   ar
    36    30    31   ar
    37    30    39   ar
    38    14    15   ar
    39    14    47    1
    40    22    23    1
    41    22    25    1
    42    31    33   ar
    43    15    16    1
    44    40    39    1
    45    39    37   ar
    46    33    34    1
    47    33    35   ar
    48    37    35   ar
    49    37    38    1
    50    35    36    1
