@<TRIPOS>MOLECULE
2-Methylbenzene-1,3-diammonium dinitrate
 29 27 0 0 0
SMALL
GASTEIGER

@<TRIPOS>ATOM
      1 N           3.3683    3.9918    0.6584 N.pl3   1  LIG1       -0.4109
      2 H           3.4448    3.0855    0.7132 H       1  LIG1        0.3712
      3 H           3.9759    4.3760    1.2444 H       1  LIG1        0.3712
      4 H           3.5502    4.2499   -0.1267 H       1  LIG1        0.3712
      5 N          -0.5093    3.9458    3.7017 N.pl3   1  LIG1       -0.4109
      6 H          -0.1063    4.3167    4.4601 H       1  LIG1        0.3712
      7 H          -0.4596    3.0632    3.7873 H       1  LIG1        0.3712
      8 H          -1.3957    4.1387    3.7064 H       1  LIG1        0.3712
      9 C           0.1477    4.3864    2.4685 C.ar    1  LIG1        0.1507
     10 C          -0.5623    5.2038    1.6089 C.ar    1  LIG1        0.0042
     11 H          -1.4224    5.4812    1.8296 H       1  LIG1        0.0681
     12 C           0.0181    5.6065    0.4141 C.ar    1  LIG1       -0.0497
     13 H          -0.4584    6.1472   -0.1739 H       1  LIG1        0.0622
     14 C           1.3085    5.2045    0.0960 C.ar    1  LIG1        0.0042
     15 H           1.7033    5.4686   -0.7038 H       1  LIG1        0.0681
     16 C           1.9962    4.4035    0.9904 C.ar    1  LIG1        0.1507
     17 C           1.4544    3.9636    2.2020 C.ar    1  LIG1        0.0792
     18 C           2.2251    3.0706    3.1346 C.3     1  LIG1       -0.0276
     19 H           3.1479    3.3369    3.1428 H       1  LIG1        0.0282
     20 H           2.1567    2.1606    2.8354 H       1  LIG1        0.0282
     21 H           1.8631    3.1448    4.0205 H       1  LIG1        0.0282
     22 O          -0.0750    1.1620    4.0464 O.2     2  LIG2       -0.0867
     23 O          -2.0505    0.9779    3.2019 O.2     2  LIG2       -0.0867
     24 O          -1.3339   -0.5169    4.6086 O.2     2  LIG2       -0.0867
     25 N          -1.1745    0.5326    3.9532 N.pl3   2  LIG2        0.2601
     26 O           3.9806   -0.6632    0.2586 O.2     3  LIG3       -0.0867
     27 O           3.8577    1.3277    1.1122 O.2     3  LIG3       -0.0867
     28 O           3.3616    1.0106   -0.9744 O.2     3  LIG3       -0.0867
     29 N           3.7323    0.5411    0.1081 N.pl3   3  LIG3        0.2601
@<TRIPOS>BOND
     1    28    29    2
     2    15    14    1
     3    13    12    1
     4     4     1    1
     5    14    12   ar
     6    14    16   ar
     7    29    26    2
     8    29    27    1
     9    12    10   ar
    10     1     2    1
    11     1    16    1
    12     1     3    1
    13    16    17   ar
    14    10    11    1
    15    10     9   ar
    16    17     9   ar
    17    17    18    1
    18     9     5    1
    19    20    18    1
    20    18    19    1
    21    18    21    1
    22    23    25    2
    23     5     8    1
    24     5     7    1
    25     5     6    1
    26    25    22    2
    27    25    24    1
