@<TRIPOS>MOLECULE
dicyclohexylammonium 4-hydroxybenzoate
 52 53 0 0 0
SMALL
GASTEIGER

@<TRIPOS>ATOM
      1 O           3.1244    6.8171    6.5145 O.co2   1  LIG1       -0.2406
      2 O           1.6412    6.9466    8.1790 O.co2   1  LIG1       -0.2406
      3 O          -0.1733   11.9679    4.7537 O.3     1  LIG1       -0.5068
      4 N           5.5791    6.2396    7.7519 N.4     2  LIG2        0.2313
      5 C           6.3933    5.9364    6.5250 C.3     2  LIG2       -0.0224
      6 C           7.8912    5.9508    6.8103 C.3     2  LIG2       -0.0097
      7 C           8.6565    5.6243    5.5291 C.3     2  LIG2       -0.0480
      8 C           8.2289    4.2888    4.9323 C.3     2  LIG2       -0.0527
      9 C           6.7175    4.2456    4.7100 C.3     2  LIG2       -0.0480
     10 C           5.9550    4.5754    5.9912 C.3     2  LIG2       -0.0097
     11 C           5.9038    7.4844    8.5238 C.3     2  LIG2       -0.0224
     12 C           4.9526    7.5419    9.7157 C.3     2  LIG2       -0.0097
     13 C           5.2008    8.7956   10.5541 C.3     2  LIG2       -0.0480
     14 C           5.0546   10.0426    9.6895 C.3     2  LIG2       -0.0527
     15 C           6.0166    9.9895    8.5028 C.3     2  LIG2       -0.0480
     16 C           5.8015    8.7314    7.6557 C.3     2  LIG2       -0.0097
     17 C           2.1189    7.3494    7.0921 C.2     1  LIG1        0.3865
     18 C           1.4789    8.5433    6.4462 C.ar    1  LIG1        0.0634
     19 C           1.9297    9.0091    5.2140 C.ar    1  LIG1       -0.0442
     20 C           1.3832   10.1422    4.6312 C.ar    1  LIG1       -0.0194
     21 C           0.3671   10.8348    5.2806 C.ar    1  LIG1        0.1169
     22 C          -0.1181   10.3668    6.5057 C.ar    1  LIG1       -0.0194
     23 C           0.4385    9.2315    7.0816 C.ar    1  LIG1       -0.0442
     24 H           0.2177   12.1272    3.9906 H       1  LIG1        0.2921
     25 H           4.7565    6.3181    7.4911 H       2  LIG2        0.2019
     26 H           5.6579    5.5657    8.2788 H       2  LIG2        0.2019
     27 H           6.1590    6.6058    5.8984 H       2  LIG2        0.0850
     28 H           8.0911    5.3223    7.5086 H       2  LIG2        0.0320
     29 H           8.1623    6.8050    7.1586 H       2  LIG2        0.0320
     30 H           9.5877    5.6100    5.7234 H       2  LIG2        0.0267
     31 H           8.5319    6.3070    4.8657 H       2  LIG2        0.0267
     32 H           8.4369    3.5740    5.5659 H       2  LIG2        0.0265
     33 H           8.6983    4.1162    4.1131 H       2  LIG2        0.0265
     34 H           6.4694    3.3638    4.4282 H       2  LIG2        0.0267
     35 H           6.5139    4.9239    4.0606 H       2  LIG2        0.0267
     36 H           5.0077    4.5809    5.8459 H       2  LIG2        0.0320
     37 H           6.1237    3.9281    6.6685 H       2  LIG2        0.0320
     38 H           6.8083    7.3804    8.8389 H       2  LIG2        0.0850
     39 H           5.0450    6.7496   10.2391 H       2  LIG2        0.0320
     40 H           4.0555    7.5795    9.3814 H       2  LIG2        0.0320
     41 H           6.0968    8.7967   10.9392 H       2  LIG2        0.0267
     42 H           4.5660    8.8077   11.2892 H       2  LIG2        0.0267
     43 H           5.2000   10.8326   10.2041 H       2  LIG2        0.0265
     44 H           4.1553   10.0802    9.3289 H       2  LIG2        0.0265
     45 H           6.9109   10.0249    8.8564 H       2  LIG2        0.0267
     46 H           5.9343   10.7884    7.9637 H       2  LIG2        0.0267
     47 H           4.9426    8.7413    7.2286 H       2  LIG2        0.0320
     48 H           6.4556    8.7082    6.9661 H       2  LIG2        0.0320
     49 H           2.6182    8.5090    4.7607 H       1  LIG1        0.0627
     50 H           1.7051   10.4786    3.7981 H       1  LIG1        0.0654
     51 H          -0.8184   10.8548    6.9136 H       1  LIG1        0.0654
     52 H           0.1561    8.9295    7.9287 H       1  LIG1        0.0627
@<TRIPOS>BOND
     1    50    20    1
     2    24     3    1
     3    35     9    1
     4    33     8    1
     5    34     9    1
     6    20    19   ar
     7    20    21   ar
     8     9     8    1
     9     9    10    1
    10     3    21    1
    11    49    19    1
    12    31     7    1
    13     8     7    1
    14     8    32    1
    15    19    18   ar
    16    21    22   ar
    17     7    30    1
    18     7     6    1
    19    36    10    1
    20    27     5    1
    21    10     5    1
    22    10    37    1
    23    18    23   ar
    24    18    17    1
    25    22    51    1
    26    22    23   ar
    27     1    17   ar
    28     5     6    1
    29     5     4    1
    30     6    29    1
    31     6    28    1
    32    48    16    1
    33    23    52    1
    34    17     2   ar
    35    47    16    1
    36    25     4    1
    37    16    15    1
    38    16    11    1
    39     4    26    1
    40     4    11    1
    41    46    15    1
    42    15    45    1
    43    15    14    1
    44    11    38    1
    45    11    12    1
    46    44    14    1
    47    40    12    1
    48    14    43    1
    49    14    13    1
    50    12    39    1
    51    12    13    1
    52    13    41    1
    53    13    42    1
