@<TRIPOS>MOLECULE
2-Isopropyl-2-(6-methoxy-1,3-benzothiazol-2-yl)-5,5-dimethyl-1,3-thiazolidin-4-one
 84 88 0 0 0
SMALL
GASTEIGER

@<TRIPOS>ATOM
      1 S           3.7779    1.2878    7.5331 S.2     1  LIG1       -0.0690
      2 S           5.8305    1.0169    9.8418 S.3     1  LIG1       -0.1127
      3 O          -0.2869    2.0034    4.3056 O.3     1  LIG1       -0.4951
      4 O           7.6727    4.2208    8.7429 O.2     1  LIG1       -0.2743
      5 N           2.5881    3.1558    8.8934 N.ar    1  LIG1       -0.2409
      6 N           5.6279    3.6030    9.5155 N.am    1  LIG1       -0.2940
      7 H           5.3444    4.3615    9.4998 H       1  LIG1        0.1504
      8 C           3.6292    2.3923    8.8841 C.ar    1  LIG1        0.1134
      9 C           2.3102    1.9479    6.8855 C.ar    1  LIG1        0.0428
     10 C           1.6527    1.5973    5.7061 C.ar    1  LIG1       -0.0041
     11 H           1.9882    0.9566    5.1663 H       1  LIG1        0.0666
     12 C           0.4662    2.2425    5.4195 C.ar    1  LIG1        0.1213
     13 C          -0.0691    3.1963    6.3042 C.ar    1  LIG1       -0.0179
     14 H          -0.9221    3.6099    6.0963 H       1  LIG1        0.0655
     15 C           0.5830    3.5385    7.4702 C.ar    1  LIG1       -0.0317
     16 H           0.1925    4.1838    8.0910 H       1  LIG1        0.0640
     17 C           1.8067    2.9152    7.7644 C.ar    1  LIG1        0.0788
     18 C           4.7491    2.5031    9.9124 C.3     1  LIG1        0.1327
     19 C           6.8711    3.3632    9.1130 C.2     1  LIG1        0.2299
     20 C           7.2688    1.8876    9.1320 C.3     1  LIG1        0.0892
     21 C           0.2476    1.0736    3.3708 C.3     1  LIG1        0.0788
     22 H           0.3804    0.1812    3.7712 H       1  LIG1        0.0660
     23 H          -0.4257    1.0097    2.6542 H       1  LIG1        0.0660
     24 H           1.0924    1.4014    2.9758 H       1  LIG1        0.0660
     25 C           8.5044    1.6982   10.0109 C.3     1  LIG1       -0.0422
     26 H           9.2373    2.2046    9.6369 H       1  LIG1        0.0248
     27 H           8.3014    1.9939   10.9334 H       1  LIG1        0.0248
     28 H           8.7208    0.7427   10.0234 H       1  LIG1        0.0248
     29 C           7.5525    1.4345    7.6938 C.3     1  LIG1       -0.0422
     30 H           8.3222    1.9791    7.3368 H       1  LIG1        0.0248
     31 H           6.7881    1.5949    7.1099 H       1  LIG1        0.0248
     32 H           7.7451    0.4902    7.6746 H       1  LIG1        0.0248
     33 C           4.1658    2.7239   11.3245 C.3     1  LIG1       -0.0097
     34 H           3.6118    3.5245   11.2551 H       1  LIG1        0.0328
     35 C           5.2551    2.9913   12.3617 C.3     1  LIG1       -0.0595
     36 H           5.8293    2.2271   12.4606 H       1  LIG1        0.0233
     37 H           5.8019    3.7731   12.0879 H       1  LIG1        0.0233
     38 H           4.8622    3.1957   13.2398 H       1  LIG1        0.0233
     39 C           3.2820    1.5546   11.7438 C.3     1  LIG1       -0.0595
     40 H           2.9215    1.7073   12.6252 H       1  LIG1        0.0233
     41 H           2.4949    1.4478   11.1329 H       1  LIG1        0.0233
     42 H           3.7922    0.7287   11.7687 H       1  LIG1        0.0233
     43 S           8.7412    7.0796   11.3712 S.2     2  LIG2       -0.0690
     44 S           7.2429    9.5827    8.8342 S.3     2  LIG2       -0.1127
     45 O          12.4515    7.7671   14.9939 O.3     2  LIG2       -0.4951
     46 O           5.0013    6.4739    9.3554 O.2     2  LIG2       -0.2743
     47 N          10.2444    8.6857    9.9811 N.ar    2  LIG2       -0.2409
     48 N           7.1745    6.9709    8.9503 N.am    2  LIG2       -0.2940
     49 H           7.3741    6.2357    8.8739 H       2  LIG2        0.1504
     50 C           9.1530    7.9952    9.9325 C.ar    2  LIG2        0.1134
     51 C          10.1767    7.6916   12.1252 C.ar    2  LIG2        0.0428
     52 C          10.6529    7.4162   13.4100 C.ar    2  LIG2       -0.0041
     53 H          10.1495    6.8736   13.9903 H       2  LIG2        0.0666
     54 C          11.8553    7.9892   13.7838 C.ar    2  LIG2        0.1213
     55 C          12.5489    8.8378   12.9060 C.ar    2  LIG2       -0.0179
     56 H          13.3722    9.2236   13.1999 H       2  LIG2        0.0655
     57 C          12.0640    9.1040   11.6436 C.ar    2  LIG2       -0.0317
     58 H          12.5383    9.6064   11.0444 H       2  LIG2        0.0640
     59 C          10.8561    8.5231   11.2297 C.ar    2  LIG2        0.0788
     60 C           8.1888    7.9923    8.7572 C.3     2  LIG2        0.1327
     61 C           5.6221    8.7967    9.1575 C.3     2  LIG2        0.0892
     62 C           5.8993    7.2935    9.1643 C.2     2  LIG2        0.2299
     63 C          11.7199    6.9547   15.9130 C.3     2  LIG2        0.0788
     64 H          12.2464    6.9377   16.7430 H       2  LIG2        0.0660
     65 H          11.6394    6.0411   15.5636 H       2  LIG2        0.0660
     66 H          10.8192    7.3622   16.0972 H       2  LIG2        0.0660
     67 C           4.6301    9.1159    8.0411 C.3     2  LIG2       -0.0422
     68 H           3.7915    8.6689    8.2406 H       2  LIG2        0.0248
     69 H           4.4445   10.0710    8.0287 H       2  LIG2        0.0248
     70 H           4.9909    8.8215    7.1435 H       2  LIG2        0.0248
     71 C           5.0761    9.2193   10.5220 C.3     2  LIG2       -0.0422
     72 H           4.2259    8.8201   10.6766 H       2  LIG2        0.0248
     73 H           5.7128    8.9304   11.2576 H       2  LIG2        0.0248
     74 H           4.9618   10.1665   10.5220 H       2  LIG2        0.0248
     75 C           8.9326    7.8155    7.4131 C.3     2  LIG2       -0.0097
     76 H           9.5598    8.5672    7.3804 H       2  LIG2        0.0328
     77 C           7.9918    7.9000    6.2119 C.3     2  LIG2       -0.0595
     78 H           7.2839    7.1914    6.2609 H       2  LIG2        0.0233
     79 H           7.5485    8.7671    6.1536 H       2  LIG2        0.0233
     80 H           8.4953    7.7890    5.4106 H       2  LIG2        0.0233
     81 C           9.6831    6.4827    7.3907 C.3     2  LIG2       -0.0595
     82 H           9.0752    5.7300    7.2757 H       2  LIG2        0.0233
     83 H          10.1859    6.3180    8.2369 H       2  LIG2        0.0233
     84 H          10.3279    6.4919    6.6573 H       2  LIG2        0.0233
@<TRIPOS>BOND
     1    23    21    1
     2    24    21    1
     3    21    22    1
     4    21     3    1
     5     3    12    1
     6    11    10    1
     7    80    77    1
     8    12    10   ar
     9    12    13   ar
    10    10     9   ar
    11    14    13    1
    12    79    77    1
    13    77    78    1
    14    77    75    1
    15    13    15   ar
    16    84    81    1
    17     9     1   ar
    18     9    17   ar
    19    31    29    1
    20    70    67    1
    21    82    81    1
    22    30    29    1
    23    76    75    1
    24    81    75    1
    25    81    83    1
    26    75    60    1
    27    15    17   ar
    28    15    16    1
    29     1     8   ar
    30    32    29    1
    31    29    20    1
    32    17     5   ar
    33    69    67    1
    34    67    68    1
    35    67    61    1
    36     4    19    2
    37    60    44    1
    38    60    48    1
    39    60    50    1
    40    44    61    1
    41    49    48    1
    42     8     5   ar
    43     8    18    1
    44    48    62   am
    45    19    20    1
    46    19     6   am
    47    20     2    1
    48    20    25    1
    49    61    62    1
    50    61    71    1
    51    62    46    2
    52     7     6    1
    53     6    18    1
    54    26    25    1
    55     2    18    1
    56    18    33    1
    57    50    47   ar
    58    50    43   ar
    59    47    59   ar
    60    25    28    1
    61    25    27    1
    62    74    71    1
    63    71    72    1
    64    71    73    1
    65    58    57    1
    66    41    39    1
    67    59    57   ar
    68    59    51   ar
    69    34    33    1
    70    33    39    1
    71    33    35    1
    72    43    51   ar
    73    57    55   ar
    74    39    42    1
    75    39    40    1
    76    37    35    1
    77    51    52   ar
    78    35    36    1
    79    35    38    1
    80    55    56    1
    81    55    54   ar
    82    52    54   ar
    83    52    53    1
    84    54    45    1
    85    45    63    1
    86    65    63    1
    87    63    66    1
    88    63    64    1
