@<TRIPOS>MOLECULE
1-[(4-Hydroxyanilino)methylidene]naphthalen-2(1<i>H</i>)-one
 33 35 0 0 0
SMALL
GASTEIGER

@<TRIPOS>ATOM
      1 N           1.4978    6.8253   10.6728 N.2     1  LIG1       -0.2105
      2 C           0.3900    7.7010   10.5920 C.ar    1  LIG1        0.2063
      3 C          -0.2350    8.0788   11.7648 C.ar    1  LIG1        0.0131
      4 H           0.0645    7.7384   12.5776 H       1  LIG1        0.0684
      5 O           2.9114    5.2283   12.0932 O.3     1  LIG1       -0.2871
      6 C           2.3590    6.5842    9.7165 C.2     1  LIG1        0.1814
      7 H           2.2344    7.0152    8.9011 H       1  LIG1        0.1383
      8 O          -2.7675   10.3614   10.4678 O.3     1  LIG1       -0.5068
      9 C          -1.1451    9.0611    9.3674 C.ar    1  LIG1       -0.0140
     10 H          -1.4594    9.3824    8.5527 H       1  LIG1        0.0656
     11 C          -1.7421    9.4770   10.5444 C.ar    1  LIG1        0.1173
     12 C           3.4532    5.7215    9.8391 C.ar    1  LIG1        0.0926
     13 C           4.3609    5.5308    8.7315 C.ar    1  LIG1       -0.0014
     14 C          -0.0955    8.1799    9.3890 C.ar    1  LIG1        0.0131
     15 H           0.2920    7.9024    8.5908 H       1  LIG1        0.0684
     16 C           4.9126    4.3311   11.2311 C.ar    1  LIG1       -0.0136
     17 H           5.1061    3.9273   12.0467 H       1  LIG1        0.0656
     18 C           5.5320    4.7671    8.9296 C.ar    1  LIG1       -0.0169
     19 C          -1.3007    8.9566   11.7423 C.ar    1  LIG1       -0.0140
     20 H          -1.7217    9.1964   12.5362 H       1  LIG1        0.0656
     21 C           3.7124    5.0974   11.0971 C.ar    1  LIG1        0.1923
     22 C           6.4545    4.6169    7.8782 C.ar    1  LIG1       -0.0540
     23 H           7.2251    4.1146    8.0151 H       1  LIG1        0.0624
     24 C           5.7645    4.1827   10.2101 C.ar    1  LIG1       -0.0504
     25 H           6.5357    3.6806   10.3395 H       1  LIG1        0.0625
     26 C           4.1606    6.0911    7.4504 C.ar    1  LIG1       -0.0532
     27 H           3.3850    6.5761    7.2801 H       1  LIG1        0.0624
     28 C           5.0862    5.9355    6.4534 C.ar    1  LIG1       -0.0611
     29 H           4.9405    6.3320    5.6243 H       1  LIG1        0.0618
     30 C           6.2381    5.1929    6.6649 C.ar    1  LIG1       -0.0612
     31 H           6.8600    5.0909    5.9811 H       1  LIG1        0.0618
     32 H           1.7297    6.3823   11.5108 H       1  LIG1        0.4529
     33 H          -2.9015   10.7707   11.2437 H       1  LIG1        0.2921
@<TRIPOS>BOND
     1    29    28    1
     2    31    30    1
     3    28    30   ar
     4    28    26   ar
     5    30    22   ar
     6    27    26    1
     7    26    13   ar
     8    22    23    1
     9    22    18   ar
    10    10     9    1
    11    15    14    1
    12    13    18   ar
    13    13    12   ar
    14     7     6    1
    15    18    24   ar
    16     9    14   ar
    17     9    11   ar
    18    14     2   ar
    19     6    12    1
    20     6     1    2
    21    12    21   ar
    22    24    25    1
    23    24    16   ar
    24     8    11    1
    25     8    33    1
    26    11    19   ar
    27     2     1    1
    28     2     3   ar
    29     1    32    1
    30    21    16   ar
    31    21     5    1
    32    16    17    1
    33    19     3   ar
    34    19    20    1
    35     3     4    1
