@<TRIPOS>MOLECULE
12-{[4-(4-Bromophenyl)piperazin-1-yl]methyl}-9\a-hydroxy-4,8-dimethyl-3,14-dioxatricyclo[9.3.0.0^2,4^]tetradec-7-en-13-one
 65 69 0 0 0
SMALL
GASTEIGER

@<TRIPOS>ATOM
      1 BR          7.9866    5.6132   -1.3829 Br      1  LIG1       -0.0503
      2 O          -0.1289   -3.3637    8.3541 O.3     1  LIG1       -0.3612
      3 O           2.1480   -1.2954    8.7084 O.3     1  LIG1       -0.4581
      4 O           3.0197   -1.7931    3.6827 O.3     1  LIG1       -0.3912
      5 H           3.5664   -1.2579    3.9777 H       1  LIG1        0.2098
      6 N           4.7706    0.2390    5.0145 N.3     1  LIG1       -0.2986
      7 N           5.9297    1.9481    3.0114 N.pl3   1  LIG1       -0.3275
      8 C           1.3082   -1.4269    7.5146 C.3     1  LIG1        0.1354
      9 H           0.5442   -0.8146    7.5482 H       1  LIG1        0.0764
     10 O           4.1475   -0.5042    9.2656 O.2     1  LIG1       -0.2505
     11 C           3.3383   -0.2489    6.9826 C.3     1  LIG1        0.0754
     12 H           3.0651    0.6915    6.9411 H       1  LIG1        0.0430
     13 C           2.2420   -1.0918    6.3273 C.3     1  LIG1        0.0152
     14 H           2.6516   -1.9290    6.0234 H       1  LIG1        0.0346
     15 C           0.8582   -2.8524    7.4361 C.3     1  LIG1        0.1251
     16 H           1.5857   -3.4825    7.2533 H       1  LIG1        0.0662
     17 C           1.5697   -0.4327    5.1114 C.3     1  LIG1       -0.0192
     18 H           1.9588    0.4455    4.9764 H       1  LIG1        0.0294
     19 H           0.6271   -0.3104    5.3041 H       1  LIG1        0.0294
     20 C           6.2960    2.7174    1.9010 C.ar    1  LIG1        0.0298
     21 C          -1.5832   -2.3546    6.6171 C.3     1  LIG1       -0.0332
     22 H          -2.4204   -2.7718    6.8324 H       1  LIG1        0.0258
     23 H          -1.5655   -2.1369    5.6819 H       1  LIG1        0.0258
     24 H          -1.4821   -1.5528    7.1342 H       1  LIG1        0.0258
     25 C           1.7099   -1.2473    3.7998 C.3     1  LIG1        0.0618
     26 H           1.5687   -0.6357    3.0462 H       1  LIG1        0.0599
     27 C           0.6251   -2.3044    3.7551 C.3     1  LIG1        0.0050
     28 C          -0.6329   -1.8010    3.1102 C.3     1  LIG1       -0.0564
     29 H          -1.3410   -2.4331    3.2532 H       1  LIG1        0.0236
     30 H          -0.4868   -1.6921    2.1682 H       1  LIG1        0.0236
     31 H          -0.8739   -0.9567    3.4964 H       1  LIG1        0.0236
     32 C          -0.4505   -3.3036    6.9340 C.3     1  LIG1        0.0969
     33 C           4.7360    1.6977    5.1092 C.3     1  LIG1        0.0147
     34 H           5.5082    2.0039    5.6111 H       1  LIG1        0.0442
     35 H           3.9399    1.9679    5.5922 H       1  LIG1        0.0442
     36 C           4.7365    2.3462    3.7524 C.3     1  LIG1        0.0250
     37 H           3.9430    2.0789    3.2618 H       1  LIG1        0.0476
     38 H           4.7193    3.3113    3.8517 H       1  LIG1        0.0476
     39 C          -0.3433   -4.4526    4.6859 C.3     1  LIG1       -0.0467
     40 H          -0.1533   -5.3103    4.2743 H       1  LIG1        0.0269
     41 H          -1.1807   -4.1245    4.3244 H       1  LIG1        0.0269
     42 C           0.7601   -3.4825    4.3568 C.3     1  LIG1       -0.0292
     43 H           1.6222   -3.7321    4.5986 H       1  LIG1        0.0310
     44 C           4.7304   -0.3677    6.3618 C.3     1  LIG1        0.0123
     45 H           5.3770    0.0757    6.9342 H       1  LIG1        0.0435
     46 H           4.9761   -1.3039    6.3011 H       1  LIG1        0.0435
     47 C           5.6026    3.8664    1.5286 C.ar    1  LIG1       -0.0396
     48 H           4.8016    4.0743    1.9543 H       1  LIG1        0.0636
     49 C           6.0841    4.7072    0.5356 C.ar    1  LIG1       -0.0460
     50 H           5.6127    5.4765    0.3088 H       1  LIG1        0.0629
     51 C           6.0000   -0.1308    4.3042 C.3     1  LIG1        0.0147
     52 H           6.0539   -1.0967    4.2278 H       1  LIG1        0.0442
     53 H           6.7712    0.1761    4.8056 H       1  LIG1        0.0442
     54 C          -0.4765   -4.6315    6.2144 C.3     1  LIG1       -0.0211
     55 H          -1.3092   -5.0869    6.4115 H       1  LIG1        0.0294
     56 H           0.2510   -5.1852    6.5374 H       1  LIG1        0.0294
     57 C           3.3168   -0.6795    8.4276 C.2     1  LIG1        0.3122
     58 C           7.9343    3.2449    0.1884 C.ar    1  LIG1       -0.0460
     59 H           8.7111    3.0264   -0.2725 H       1  LIG1        0.0629
     60 C           7.2562    4.4017   -0.1118 C.ar    1  LIG1        0.0180
     61 C           6.0092    0.4900    2.9242 C.3     1  LIG1        0.0250
     62 H           6.8220    0.2376    2.4615 H       1  LIG1        0.0476
     63 H           5.2552    0.1556    2.4132 H       1  LIG1        0.0476
     64 C           7.4570    2.4098    1.1769 C.ar    1  LIG1       -0.0396
     65 H           7.9160    1.6242    1.3679 H       1  LIG1        0.0636
@<TRIPOS>BOND
     1     1    60    1
     2    59    58    1
     3    60    58   ar
     4    60    49   ar
     5    58    64   ar
     6    50    49    1
     7    49    47   ar
     8    64    65    1
     9    64    20   ar
    10    47    20   ar
    11    47    48    1
    12    20     7    1
    13    30    28    1
    14    63    61    1
    15    62    61    1
    16    61     7    1
    17    61    51    1
    18     7    36    1
    19    26    25    1
    20    28    29    1
    21    28    31    1
    22    28    27    1
    23    37    36    1
    24     4    25    1
    25     4     5    1
    26    36    38    1
    27    36    33    1
    28    27    25    1
    29    27    42    1
    30    25    17    1
    31    52    51    1
    32    40    39    1
    33    51    53    1
    34    51     6    1
    35    41    39    1
    36    42    43    1
    37    42    39    1
    38    39    54    1
    39    18    17    1
    40     6    33    1
    41     6    44    1
    42    33    35    1
    43    33    34    1
    44    17    19    1
    45    17    13    1
    46    23    21    1
    47    14    13    1
    48    54    55    1
    49    54    56    1
    50    54    32    1
    51    46    44    1
    52    13    11    1
    53    13     8    1
    54    44    45    1
    55    44    11    1
    56    21    22    1
    57    21    32    1
    58    21    24    1
    59    32    15    1
    60    32     2    1
    61    12    11    1
    62    11    57    1
    63    16    15    1
    64    15     8    1
    65    15     2    1
    66     8     9    1
    67     8     3    1
    68    57     3    1
    69    57    10    2
