@<TRIPOS>MOLECULE
2-[(3,5,6-Trichloropyridin-2-yl)oxy]acetic acid
 36 36 0 0 0
SMALL
GASTEIGER

@<TRIPOS>ATOM
      1 CL          2.3396   13.5458    9.1961 Cl      1  LIG1       -0.0603
      2 CL          3.3410   15.8969   11.0492 Cl      1  LIG1       -0.0804
      3 CL          3.1233   19.1205    6.7425 Cl      1  LIG1       -0.0780
      4 CL          6.2228    8.0173    4.9016 Cl      2  LIG2       -0.0603
      5 CL          5.2308    5.8984    2.7428 Cl      2  LIG2       -0.0804
      6 CL          5.3112    9.8777   -0.8930 Cl      2  LIG2       -0.0780
      7 O           1.9768   16.7255    5.4891 O.3     1  LIG1       -0.4639
      8 O           3.8548   14.9763    4.6722 O.2     1  LIG1       -0.2472
      9 O           2.3510   13.7132    3.6064 O.3     1  LIG1       -0.4783
     10 H           3.0307   13.2914    3.3516 H       1  LIG1        0.2952
     11 O           6.4945   11.3438    1.3088 O.3     2  LIG2       -0.4639
     12 O           6.1260   13.8657    3.8113 O.3     2  LIG2       -0.4783
     13 H           5.4458   14.2265    4.1480 H       2  LIG2        0.2952
     14 O           4.6241   12.4667    2.8997 O.2     2  LIG2       -0.2472
     15 N           2.2148   15.3110    7.2996 N.ar    1  LIG1       -0.1985
     16 N           6.2927    9.7100    2.9280 N.ar    2  LIG2       -0.1985
     17 C           2.5336   15.1397    8.5655 C.ar    1  LIG1        0.1513
     18 C           2.9954   16.1583    9.3824 C.ar    1  LIG1        0.0793
     19 C           3.1881   17.4057    8.8075 C.ar    1  LIG1       -0.0169
     20 H           3.5348   18.1242    9.3228 H       1  LIG1        0.0649
     21 C           2.8715   17.5863    7.4899 C.ar    1  LIG1        0.1038
     22 C           2.3544   16.5092    6.7715 C.ar    1  LIG1        0.2356
     23 C           1.5396   15.5790    4.7463 C.3     1  LIG1        0.1874
     24 H           1.0533   15.8730    3.9353 H       1  LIG1        0.0816
     25 H           0.9175   15.0421    5.2997 H       1  LIG1        0.0816
     26 C           2.7211   14.7329    4.3481 C.2     1  LIG1        0.3428
     27 C           6.0065    8.4551    3.2443 C.ar    2  LIG2        0.1513
     28 C           5.5506    7.5366    2.3209 C.ar    2  LIG2        0.0793
     29 C           5.3270    7.9700    1.0199 C.ar    2  LIG2       -0.0169
     30 H           4.9825    7.3712    0.3670 H       2  LIG2        0.0649
     31 C           5.6091    9.2733    0.6891 C.ar    2  LIG2        0.1038
     32 C           6.1306   10.1077    1.6807 C.ar    2  LIG2        0.2356
     33 C           6.9390   12.2451    2.3278 C.3     2  LIG2        0.1874
     34 H           7.4899   12.9586    1.9198 H       2  LIG2        0.0816
     35 H           7.5020   11.7567    2.9798 H       2  LIG2        0.0816
     36 C           5.7562   12.8618    3.0422 C.2     2  LIG2        0.3428
@<TRIPOS>BOND
     1     6    31    1
     2    30    29    1
     3    31    29   ar
     4    31    32   ar
     5    29    28   ar
     6    11    32    1
     7    11    33    1
     8    32    16   ar
     9    34    33    1
    10    28     5    1
    11    28    27   ar
    12    33    35    1
    13    33    36    1
    14    14    36    2
    15    16    27   ar
    16    36    12    1
    17    27     4    1
    18    10     9    1
    19     9    26    1
    20    12    13    1
    21    24    23    1
    22    26     8    2
    23    26    23    1
    24    23    25    1
    25    23     7    1
    26     7    22    1
    27     3    21    1
    28    22    15   ar
    29    22    21   ar
    30    15    17   ar
    31    21    19   ar
    32    17     1    1
    33    17    18   ar
    34    19    20    1
    35    19    18   ar
    36    18     2    1
