@<TRIPOS>MOLECULE
1-[(4-formylbenzylidene)amino]-3-methylthiourea
 26 26 0 0 0
SMALL
GASTEIGER

@<TRIPOS>ATOM
      1 S          11.8624    9.2706    7.8846 S.2     1  LIG1       -0.0172
      2 O          11.5772   -0.1587   14.0922 O.2     1  LIG1       -0.2957
      3 N          10.6791    6.9115    7.5830 N.am    1  LIG1       -0.3284
      4 C          11.4583    7.6913    8.3028 C.2     1  LIG1        0.1497
      5 N          11.9348    7.1809    9.4658 N.am    1  LIG1       -0.2184
      6 C          12.1163    5.4980   10.9449 C.2     1  LIG1        0.0528
      7 H          12.6205    6.0920   11.4536 H       1  LIG1        0.0851
      8 N          11.6508    5.8868    9.8215 N.2     1  LIG1       -0.1885
      9 C          11.8838    4.1559   11.4550 C.ar    1  LIG1       -0.0054
     10 C          12.3142    3.8384   12.7411 C.ar    1  LIG1       -0.0524
     11 H          12.7386    4.4864   13.2570 H       1  LIG1        0.0624
     12 C          12.1197    2.5797   13.2585 C.ar    1  LIG1       -0.0509
     13 H          12.4066    2.3840   14.1209 H       1  LIG1        0.0625
     14 C          11.4961    1.6003   12.4988 C.ar    1  LIG1        0.0142
     15 C          11.0659    1.9156   11.2157 C.ar    1  LIG1       -0.0509
     16 H          10.6455    1.2655   10.7001 H       1  LIG1        0.0625
     17 C          11.2524    3.1736   10.6970 C.ar    1  LIG1       -0.0524
     18 H          10.9565    3.3697    9.8381 H       1  LIG1        0.0624
     19 C          11.2949    0.2347   13.0081 C.2     1  LIG1        0.1502
     20 H          10.9092   -0.3790   12.4260 H       1  LIG1        0.1081
     21 C          10.0986    7.2875    6.3110 C.3     1  LIG1       -0.0008
     22 H           9.4027    7.9322    6.4542 H       1  LIG1        0.0426
     23 H           9.7308    6.5100    5.8847 H       1  LIG1        0.0426
     24 H          10.7780    7.6692    5.7491 H       1  LIG1        0.0426
     25 H          12.5221    7.6604    9.9524 H       1  LIG1        0.1762
     26 H          10.5116    6.1549    7.9127 H       1  LIG1        0.1474
@<TRIPOS>BOND
     1    24    21    1
     2    23    21    1
     3    21    22    1
     4    21     3    1
     5     3    26    1
     6     3     4    1
     7     1     4    2
     8     4     5    1
     9     5     8    1
    10     5    25    1
    11     8     6    2
    12    18    17    1
    13    17    15   ar
    14    17     9   ar
    15    16    15    1
    16     6     7    1
    17     6     9    1
    18    15    14   ar
    19     9    10   ar
    20    20    19    1
    21    14    19    1
    22    14    12   ar
    23    10    11    1
    24    10    12   ar
    25    19     2    2
    26    12    13    1
