@<TRIPOS>MOLECULE
3-Amino-5,5-diphenylimidazolidine-2,4-dione
 66 70 0 0 0
SMALL
GASTEIGER

@<TRIPOS>ATOM
      1 O          14.4879    0.4907    9.6779 O.2     1  LIG1       -0.2707
      2 O          17.0750    3.9586    8.1764 O.2     1  LIG1       -0.2508
      3 N          15.0538    3.9130    9.2848 N.am    1  LIG1       -0.2765
      4 H          14.8705    4.7995    9.3742 H       1  LIG1        0.1519
      5 N          16.0106    1.9802    8.8290 N.am    1  LIG1       -0.1568
      6 N          17.0537    1.1060    8.4668 N.3     1  LIG1       -0.2433
      7 H          17.3768    0.7429    9.2352 H       1  LIG1        0.1412
      8 H          16.7267    0.4729    7.9001 H       1  LIG1        0.1412
      9 C          14.1939    2.9290    9.9403 C.3     1  LIG1        0.1649
     10 C          14.8847    1.6350    9.4837 C.2     1  LIG1        0.2694
     11 C          16.1523    3.3853    8.7185 C.2     1  LIG1        0.3239
     12 C          12.7320    3.0351    9.4896 C.ar    1  LIG1       -0.0107
     13 C          11.8439    1.9808    9.6992 C.ar    1  LIG1       -0.0557
     14 H          12.1539    1.1738   10.0931 H       1  LIG1        0.0621
     15 C          10.5190    2.1041    9.3381 C.ar    1  LIG1       -0.0614
     16 H           9.9236    1.3773    9.4809 H       1  LIG1        0.0618
     17 C          10.0449    3.2761    8.7704 C.ar    1  LIG1       -0.0617
     18 H           9.1317    3.3550    8.5203 H       1  LIG1        0.0618
     19 C          10.9168    4.3267    8.5745 C.ar    1  LIG1       -0.0614
     20 H          10.5988    5.1392    8.1981 H       1  LIG1        0.0618
     21 C          12.2525    4.2046    8.9215 C.ar    1  LIG1       -0.0557
     22 H          12.8469    4.9308    8.7680 H       1  LIG1        0.0621
     23 C          14.2746    3.0314   11.4782 C.ar    1  LIG1       -0.0107
     24 C          14.5645    4.2613   12.0763 C.ar    1  LIG1       -0.0557
     25 H          14.7307    5.0233   11.5330 H       1  LIG1        0.0621
     26 C          14.6118    4.3766   13.4549 C.ar    1  LIG1       -0.0614
     27 H          14.8053    5.2194   13.8488 H       1  LIG1        0.0618
     28 C          14.3831    3.2841   14.2655 C.ar    1  LIG1       -0.0617
     29 H          14.4298    3.3674   15.2101 H       1  LIG1        0.0618
     30 C          14.0845    2.0709   13.6847 C.ar    1  LIG1       -0.0614
     31 H          13.9220    1.3138   14.2355 H       1  LIG1        0.0618
     32 C          14.0184    1.9426   12.2996 C.ar    1  LIG1       -0.0557
     33 H          13.7958    1.1029   11.9136 H       1  LIG1        0.0621
     34 O          17.3691    0.4186   11.3257 O.2     2  LIG2       -0.2508
     35 O          18.1260    3.9370   14.1533 O.2     2  LIG2       -0.2707
     36 N          17.8229    0.5160   13.5790 N.am    2  LIG2       -0.2765
     37 H          17.9423   -0.3736   13.7260 H       2  LIG2        0.1519
     38 N          17.6812    2.4253   12.4933 N.am    2  LIG2       -0.1568
     39 N          17.6708    3.2774   11.3702 N.3     2  LIG2       -0.2433
     40 H          17.1955    4.0252   11.5793 H       2  LIG2        0.1412
     41 H          18.5363    3.5381   11.2671 H       2  LIG2        0.1412
     42 C          18.1515    1.5166   14.5947 C.3     2  LIG2        0.1649
     43 C          17.9966    2.7885   13.7548 C.2     2  LIG2        0.2694
     44 C          17.6085    1.0240   12.3556 C.2     2  LIG2        0.3239
     45 C          19.5909    1.3662   15.1141 C.ar    2  LIG2       -0.0107
     46 C          20.2346    0.1387   15.0496 C.ar    2  LIG2       -0.0557
     47 H          19.7987   -0.5999   14.6402 H       2  LIG2        0.0621
     48 C          21.5098   -0.0222   15.5774 C.ar    2  LIG2       -0.0614
     49 H          21.9352   -0.8699   15.5263 H       2  LIG2        0.0618
     50 C          22.1596    1.0290   16.1717 C.ar    2  LIG2       -0.0617
     51 H          23.0315    0.9149   16.5312 H       2  LIG2        0.0618
     52 C          21.5278    2.2595   16.2408 C.ar    2  LIG2       -0.0614
     53 H          21.9717    2.9950   16.6460 H       2  LIG2        0.0618
     54 C          20.2563    2.4266   15.7232 C.ar    2  LIG2       -0.0557
     55 H          19.8319    3.2743   15.7841 H       2  LIG2        0.0621
     56 C          17.1570    1.5037   15.7645 C.ar    2  LIG2       -0.0107
     57 C          17.0347    2.6035   16.6079 C.ar    2  LIG2       -0.0557
     58 H          17.5689    3.3742   16.4587 H       2  LIG2        0.0621
     59 C          16.1340    2.5826   17.6690 C.ar    2  LIG2       -0.0614
     60 H          16.0598    3.3384   18.2389 H       2  LIG2        0.0618
     61 C          15.3478    1.4691   17.8971 C.ar    2  LIG2       -0.0617
     62 H          14.7246    1.4630   18.6134 H       2  LIG2        0.0618
     63 C          15.4733    0.3613   17.0733 C.ar    2  LIG2       -0.0614
     64 H          14.9381   -0.4087   17.2279 H       2  LIG2        0.0618
     65 C          16.3812    0.3761   16.0195 C.ar    2  LIG2       -0.0557
     66 H          16.4727   -0.3915   15.4679 H       2  LIG2        0.0621
@<TRIPOS>BOND
     1     8     6    1
     2     2    11    2
     3    20    19    1
     4     6     5    1
     5     6     7    1
     6    18    17    1
     7    19    17   ar
     8    19    21   ar
     9    11     5   am
    10    11     3   am
    11    22    21    1
    12    17    15   ar
    13     5    10   am
    14    21    12   ar
    15     3     4    1
    16     3     9    1
    17    15    16    1
    18    15    13   ar
    19    10     1    2
    20    10     9    1
    21    12    13   ar
    22    12     9    1
    23    13    14    1
    24     9    23    1
    25    41    39    1
    26    34    44    2
    27    39    40    1
    28    39    38    1
    29    23    24   ar
    30    23    32   ar
    31    25    24    1
    32    33    32    1
    33    24    26   ar
    34    32    30   ar
    35    44    38   am
    36    44    36   am
    37    38    43   am
    38    26    27    1
    39    26    28   ar
    40    36    37    1
    41    36    42    1
    42    30    31    1
    43    30    28   ar
    44    43    35    2
    45    43    42    1
    46    28    29    1
    47    42    45    1
    48    42    56    1
    49    47    46    1
    50    46    45   ar
    51    46    48   ar
    52    45    54   ar
    53    66    65    1
    54    49    48    1
    55    48    50   ar
    56    54    55    1
    57    54    52   ar
    58    56    65   ar
    59    56    57   ar
    60    65    63   ar
    61    50    52   ar
    62    50    51    1
    63    52    53    1
    64    58    57    1
    65    57    59   ar
    66    63    64    1
    67    63    61   ar
    68    59    61   ar
    69    59    60    1
    70    61    62    1
