@<TRIPOS>MOLECULE
2,7-Diethoxy-1,8-bis(4-nitrobenzoyl)naphthalene
 31 32 0 0 0
SMALL
GASTEIGER

@<TRIPOS>ATOM
      1 O          11.2496    1.9021    1.0632 O.2     1  LIG1       -0.2865
      2 O          14.1274    3.8580    0.2014 O.3     1  LIG1       -0.4915
      3 O          16.8945   -1.9964    1.1256 O.2     1  LIG1       -0.1261
      4 O          17.6476   -0.8561    2.7898 O.2     1  LIG1       -0.1261
      5 N          16.8249   -1.0639    1.9149 N.pl3   1  LIG1        0.0564
      6 C          12.3939    3.8510    1.7402 C.ar    1  LIG1        0.0721
      7 C          13.3122    4.5844    1.0032 C.ar    1  LIG1        0.1319
      8 C          13.3192    5.9954    1.0389 C.ar    1  LIG1       -0.0186
      9 H          13.9630    6.4866    0.5427 H       1  LIG1        0.0654
     10 C          12.3918    6.6424    1.7919 C.ar    1  LIG1       -0.0499
     11 H          12.3844    7.5928    1.7945 H       1  LIG1        0.0625
     12 C          11.4408    5.9492    2.5694 C.ar    1  LIG1       -0.0086
     13 C          11.4408    4.5164    2.5694 C.ar    1  LIG1        0.0056
     14 C          12.3028    2.3847    1.4392 C.2     1  LIG1        0.1972
     15 C          13.5155    1.5170    1.5706 C.ar    1  LIG1        0.0225
     16 C          14.5280    1.8003    2.4806 C.ar    1  LIG1       -0.0488
     17 H          14.4745    2.5856    3.0134 H       1  LIG1        0.0625
     18 C          15.6091    0.9515    2.6181 C.ar    1  LIG1       -0.0308
     19 H          16.2941    1.1298    3.2518 H       1  LIG1        0.0640
     20 C          15.6657   -0.1670    1.8041 C.ar    1  LIG1        0.1262
     21 C          14.6876   -0.4646    0.8756 C.ar    1  LIG1       -0.0308
     22 H          14.7583   -1.2344    0.3227 H       1  LIG1        0.0640
     23 C          13.6031    0.3835    0.7703 C.ar    1  LIG1       -0.0488
     24 H          12.9119    0.1917    0.1470 H       1  LIG1        0.0625
     25 C          15.2108    4.4801   -0.4938 C.3     1  LIG1        0.0868
     26 H          15.7485    5.0369    0.1244 H       1  LIG1        0.0694
     27 H          14.8708    5.0543   -1.2261 H       1  LIG1        0.0694
     28 C          16.0369    3.3560   -1.0442 C.3     1  LIG1       -0.0307
     29 H          16.4010    2.8255   -0.3052 H       1  LIG1        0.0262
     30 H          16.7725    3.7226   -1.5776 H       1  LIG1        0.0262
     31 H          15.4752    2.7855   -1.6105 H       1  LIG1        0.0262
@<TRIPOS>BOND
     1    31    28    1
     2    30    28    1
     3    27    25    1
     4    28    25    1
     5    28    29    1
     6    25    26    1
     7    25     2    1
     8    24    23    1
     9     2     7    1
    10    22    21    1
    11     9     8    1
    12    23    21   ar
    13    23    15   ar
    14    21    20   ar
    15     7     8   ar
    16     7     6   ar
    17     8    10   ar
    18     1    14    2
    19     3     5    2
    20    14    15    1
    21    14     6    1
    22    15    16   ar
    23     6    13   ar
    24    10    11    1
    25    10    12   ar
    26    20     5    1
    27    20    18   ar
    28     5     4    2
    29    16    18   ar
    30    16    17    1
    31    13    12   ar
    32    18    19    1
