@<TRIPOS>MOLECULE
(1<i>R</i>,3<i>S</i>,8<i>R</i>)-3,7,7,10-Tetramethyltricyclo[6.4.0.0^1,3^]dodec-9-en-11-one
 41 43 0 0 0
SMALL
GASTEIGER

@<TRIPOS>ATOM
      1 C           1.5471    6.2654    3.7616 C.3     1  LIG1       -0.0096
      2 C           1.1627    7.7330    3.6825 C.3     1  LIG1       -0.0400
      3 H           0.2814    7.9583    3.2921 H       1  LIG1        0.0276
      4 H           1.4576    8.3267    4.4176 H       1  LIG1        0.0276
      5 C           2.2232    7.1803    2.7564 C.3     1  LIG1       -0.0249
      6 C           1.8629    7.0164    1.2902 C.3     1  LIG1       -0.0471
      7 H           2.2851    7.7477    0.7731 H       1  LIG1        0.0271
      8 H           0.8820    7.1040    1.1898 H       1  LIG1        0.0271
      9 C           2.3011    5.6800    0.6997 C.3     1  LIG1       -0.0520
     10 H           3.1711    5.4244    1.0974 H       1  LIG1        0.0266
     11 H           2.4352    5.7889   -0.2747 H       1  LIG1        0.0266
     12 C           1.2965    4.5511    0.9387 C.3     1  LIG1       -0.0473
     13 H           1.5975    3.7693    0.4127 H       1  LIG1        0.0271
     14 H           0.4293    4.8398    0.5587 H       1  LIG1        0.0271
     15 C           1.0321    4.0654    2.3839 C.3     1  LIG1       -0.0281
     16 C           0.5156    5.2481    3.2838 C.3     1  LIG1       -0.0106
     17 H          -0.1224    5.7621    2.7106 H       1  LIG1        0.0354
     18 C          -0.2952    4.7725    4.4675 C.2     1  LIG1       -0.0736
     19 H          -1.1177    4.3381    4.2755 H       1  LIG1        0.0579
     20 C           0.0289    4.9014    5.7566 C.2     1  LIG1       -0.0117
     21 C           1.3390    5.4725    6.1416 C.2     1  LIG1        0.1592
     22 C           2.2787    5.8757    5.0378 C.3     1  LIG1        0.0168
     23 H           2.8907    5.1223    4.8423 H       1  LIG1        0.0351
     24 H           2.8273    6.6409    5.3434 H       1  LIG1        0.0351
     25 C           3.6711    7.5899    2.9752 C.3     1  LIG1       -0.0590
     26 H           3.8011    7.8424    3.9138 H       1  LIG1        0.0235
     27 H           3.8852    8.3536    2.3997 H       1  LIG1        0.0235
     28 H           4.2599    6.8389    2.7548 H       1  LIG1        0.0235
     29 C           2.2835    3.3977    2.9527 C.3     1  LIG1       -0.0593
     30 H           2.5069    2.6096    2.4145 H       1  LIG1        0.0235
     31 H           2.1157    3.1240    3.8789 H       1  LIG1        0.0235
     32 H           3.0308    4.0312    2.9290 H       1  LIG1        0.0235
     33 C          -0.0703    2.9986    2.2672 C.3     1  LIG1       -0.0593
     34 H          -0.1985    2.5647    3.1366 H       1  LIG1        0.0235
     35 H           0.1939    2.3272    1.6038 H       1  LIG1        0.0235
     36 H          -0.9074    3.4230    1.9870 H       1  LIG1        0.0235
     37 C          -0.8864    4.4793    6.8761 C.3     1  LIG1       -0.0367
     38 H          -1.6989    4.0809    6.5011 H       1  LIG1        0.0278
     39 H          -1.1253    5.2619    7.4149 H       1  LIG1        0.0278
     40 H          -0.4302    3.8206    7.4403 H       1  LIG1        0.0278
     41 O           1.6597    5.5956    7.3114 O.2     1  LIG1       -0.2924
@<TRIPOS>BOND
     1    11     9    1
     2    13    12    1
     3    14    12    1
     4     9    12    1
     5     9    10    1
     6     9     6    1
     7     7     6    1
     8    12    15    1
     9     8     6    1
    10     6     5    1
    11    35    33    1
    12    36    33    1
    13    33    15    1
    14    33    34    1
    15    15    29    1
    16    15    16    1
    17    27    25    1
    18    30    29    1
    19    17    16    1
    20    28    25    1
    21     5    25    1
    22     5     2    1
    23     5     1    1
    24    32    29    1
    25    29    31    1
    26    25    26    1
    27    16     1    1
    28    16    18    1
    29     3     2    1
    30     2     1    1
    31     2     4    1
    32     1    22    1
    33    19    18    1
    34    18    20    2
    35    23    22    1
    36    22    24    1
    37    22    21    1
    38    20    21    1
    39    20    37    1
    40    21    41    2
    41    38    37    1
    42    37    39    1
    43    37    40    1
