@<TRIPOS>MOLECULE
(1<i>R</i>,4<i>R</i>)-<i>tert</i>-butyl 3-oxo-2-oxa-5-azabicyclo[2.2.2]octane-5-carboxylate
 33 34 0 0 0
SMALL
GASTEIGER

@<TRIPOS>ATOM
      1 C           6.3097    3.0653    0.7371 C.3     1  LIG1        0.1263
      2 H           6.8495    2.8514   -0.0771 H       1  LIG1        0.0617
      3 C           4.8232    3.2435    0.3879 C.3     1  LIG1       -0.0204
      4 H           4.4647    2.4125   -0.0135 H       1  LIG1        0.0290
      5 H           4.7107    3.9804   -0.2630 H       1  LIG1        0.0290
      6 C           4.0715    3.5713    1.7011 C.3     1  LIG1       -0.0120
      7 H           3.6466    4.4630    1.6330 H       1  LIG1        0.0302
      8 H           3.3620    2.8999    1.8605 H       1  LIG1        0.0302
      9 C           5.0649    3.5585    2.8544 C.3     1  LIG1        0.1189
     10 H           4.5824    3.7241    3.7149 H       1  LIG1        0.0750
     11 C           6.1624    4.5912    2.6800 C.3     1  LIG1        0.0558
     12 H           5.7816    5.5047    2.6605 H       1  LIG1        0.0502
     13 H           6.8148    4.5348    3.4226 H       1  LIG1        0.0502
     14 C           6.3801    1.9374    1.7573 C.2     1  LIG1        0.3283
     15 C           7.8527    4.9728    0.8882 C.2     1  LIG1        0.4042
     16 C           9.3513    6.8275    1.4829 C.3     1  LIG1        0.1068
     17 C          10.6120    5.9959    1.3558 C.3     1  LIG1       -0.0253
     18 H          10.5772    5.4736    0.5272 H       1  LIG1        0.0268
     19 H          10.6814    5.3891    2.1223 H       1  LIG1        0.0268
     20 H          11.3933    6.5871    1.3358 H       1  LIG1        0.0268
     21 C           9.0962    7.6863    0.2612 C.3     1  LIG1       -0.0253
     22 H           8.3178    8.2589    0.4220 H       1  LIG1        0.0268
     23 H           8.9237    7.1104   -0.5125 H       1  LIG1        0.0268
     24 H           9.8816    8.2444    0.0844 H       1  LIG1        0.0268
     25 C           9.3898    7.6849    2.7350 C.3     1  LIG1       -0.0253
     26 H           9.5179    7.1114    3.5192 H       1  LIG1        0.0268
     27 H           8.5455    8.1745    2.8220 H       1  LIG1        0.0268
     28 H          10.1315    8.3220    2.6715 H       1  LIG1        0.0268
     29 N           6.8071    4.2726    1.4004 N.am    1  LIG1       -0.2504
     30 O           6.9173    0.8733    1.6193 O.2     1  LIG1       -0.2487
     31 O           5.7074    2.2372    2.8971 O.3     1  LIG1       -0.4585
     32 O           8.3855    4.7323   -0.1797 O.2     1  LIG1       -0.2262
     33 O           8.1809    5.9635    1.7414 O.3     1  LIG1       -0.4445
@<TRIPOS>BOND
     1    23    21    1
     2     5     3    1
     3    32    15    2
     4     2     1    1
     5     4     3    1
     6    24    21    1
     7    21    22    1
     8    21    16    1
     9     3     1    1
    10     3     6    1
    11    18    17    1
    12     1    29    1
    13     1    14    1
    14    15    29   am
    15    15    33    1
    16    20    17    1
    17    17    16    1
    18    17    19    1
    19    29    11    1
    20    16    33    1
    21    16    25    1
    22    30    14    2
    23     7     6    1
    24     6     8    1
    25     6     9    1
    26    14    31    1
    27    12    11    1
    28    28    25    1
    29    11     9    1
    30    11    13    1
    31    25    27    1
    32    25    26    1
    33     9    31    1
    34     9    10    1
