@<TRIPOS>MOLECULE
1,3-Dioxoisoindolin-2-yl methyl carbonate
 46 48 0 0 0
SMALL
GASTEIGER

@<TRIPOS>ATOM
      1 O           3.6846   10.5928   -1.3183 O.2     1  LIG1       -0.2665
      2 O           4.5773    6.4553    0.4326 O.2     1  LIG1       -0.2665
      3 O           4.4168    9.2145    1.0453 O.3     1  LIG1       -0.3031
      4 O           2.5133    8.3887    2.0183 O.2     1  LIG1       -0.2010
      5 O           4.0156    9.7126    3.0907 O.3     1  LIG1       -0.4357
      6 N           3.9700    8.6194   -0.1225 N.am    1  LIG1       -0.0515
      7 C           3.7050    9.3912   -1.2709 C.2     1  LIG1        0.2867
      8 C           3.5177    8.3643   -2.3328 C.ar    1  LIG1        0.0524
      9 C           3.1326    8.5219   -3.6523 C.ar    1  LIG1       -0.0488
     10 H           2.9337    9.3790   -4.0095 H       1  LIG1        0.0625
     11 C           3.0480    7.3697   -4.4406 C.ar    1  LIG1       -0.0610
     12 H           2.7847    7.4435   -5.3505 H       1  LIG1        0.0618
     13 C           3.3440    6.1158   -3.9114 C.ar    1  LIG1       -0.0610
     14 H           3.2864    5.3495   -4.4703 H       1  LIG1        0.0618
     15 C           3.7237    5.9603   -2.5754 C.ar    1  LIG1       -0.0488
     16 H           3.9202    5.1049   -2.2126 H       1  LIG1        0.0625
     17 C           3.8007    7.1039   -1.8043 C.ar    1  LIG1        0.0524
     18 C           4.1758    7.2533   -0.3758 C.2     1  LIG1        0.2867
     19 C           3.5055    9.0454    2.0791 C.2     1  LIG1        0.5334
     20 C           3.2350    9.6333    4.3122 C.3     1  LIG1        0.0852
     21 H           3.6980   10.1168    5.0274 H       1  LIG1        0.0662
     22 H           3.1266    8.6942    4.5703 H       1  LIG1        0.0662
     23 H           2.3541   10.0348    4.1631 H       1  LIG1        0.0662
     24 O          -1.7346    4.4131    7.3776 O.2     2  LIG2       -0.2665
     25 O          -2.1780    8.9567    7.8982 O.2     2  LIG2       -0.2665
     26 O          -2.2384    6.8560    6.0009 O.3     2  LIG2       -0.3031
     27 O          -0.0409    7.5041    5.8872 O.2     2  LIG2       -0.2010
     28 O          -1.4077    7.3288    4.0803 O.3     2  LIG2       -0.4357
     29 N          -2.0068    6.7162    7.3535 N.am    2  LIG2       -0.0515
     30 C          -1.7112    5.4776    7.9360 C.2     2  LIG2        0.2867
     31 C          -1.4126    5.8346    9.3501 C.ar    2  LIG2        0.0524
     32 C          -1.0191    5.0151   10.3907 C.ar    2  LIG2       -0.0488
     33 H          -0.9315    4.0761   10.2767 H       2  LIG2        0.0625
     34 C          -0.7553    5.6281   11.6194 C.ar    2  LIG2       -0.0610
     35 H          -0.4780    5.0942   12.3552 H       2  LIG2        0.0618
     36 C          -0.8902    7.0058   11.7878 C.ar    2  LIG2       -0.0610
     37 H          -0.7014    7.3934   12.6343 H       2  LIG2        0.0618
     38 C          -1.2994    7.8255   10.7307 C.ar    2  LIG2       -0.0488
     39 H          -1.4001    8.7635   10.8423 H       2  LIG2        0.0625
     40 C          -1.5507    7.2137    9.5157 C.ar    2  LIG2        0.0524
     41 C          -1.9455    7.8226    8.2135 C.2     2  LIG2        0.2867
     42 C          -1.0727    7.2653    5.3468 C.2     2  LIG2        0.5334
     43 C          -0.3107    7.7156    3.2055 C.3     2  LIG2        0.0852
     44 H          -0.6023    7.6605    2.2711 H       2  LIG2        0.0662
     45 H           0.4481    7.1122    3.3463 H       2  LIG2        0.0662
     46 H          -0.0390    8.6356    3.4085 H       2  LIG2        0.0662
@<TRIPOS>BOND
     1    12    11    1
     2    14    13    1
     3    11    13   ar
     4    11     9   ar
     5    10     9    1
     6    13    15   ar
     7     9     8   ar
     8    15    16    1
     9    15    17   ar
    10     8    17   ar
    11     8     7    1
    12    17    18    1
    13     1     7    2
    14     7     6   am
    15    18     6   am
    16    18     2    2
    17     6     3    1
    18     3    19    1
    19     4    19    2
    20    19     5    1
    21    44    43    1
    22     5    20    1
    23    43    45    1
    24    43    46    1
    25    43    28    1
    26    28    42    1
    27    23    20    1
    28    20    22    1
    29    20    21    1
    30    42    27    2
    31    42    26    1
    32    26    29    1
    33    29    30   am
    34    29    41   am
    35    24    30    2
    36    25    41    2
    37    30    31    1
    38    41    40    1
    39    31    40   ar
    40    31    32   ar
    41    40    38   ar
    42    33    32    1
    43    32    34   ar
    44    38    39    1
    45    38    36   ar
    46    34    36   ar
    47    34    35    1
    48    36    37    1
