@<TRIPOS>MOLECULE
4-Methoxyquinazoline
 20 21 0 0 0
SMALL
GASTEIGER

@<TRIPOS>ATOM
      1 C          -1.1198    3.5396    9.7745 C.ar    1  LIG1        0.1204
      2 H          -1.9582    3.1729    9.6115 H       1  LIG1        0.1048
      3 C           0.9963    3.8552    9.0303 C.ar    1  LIG1        0.2253
      4 C           1.3140    4.5715   10.2212 C.ar    1  LIG1        0.0619
      5 C           0.2537    4.7032   11.1460 C.ar    1  LIG1        0.0778
      6 C           0.5021    5.3847   12.3519 C.ar    1  LIG1       -0.0355
      7 H          -0.1830    5.4803   12.9738 H       1  LIG1        0.0639
      8 C           1.7250    5.9033   12.6180 C.ar    1  LIG1       -0.0597
      9 H           1.8688    6.3510   13.4206 H       1  LIG1        0.0618
     10 C           2.7875    5.7721   11.6892 C.ar    1  LIG1       -0.0609
     11 H           3.6243    6.1290   11.8834 H       1  LIG1        0.0618
     12 C           2.5794    5.1213   10.5091 C.ar    1  LIG1       -0.0475
     13 H           3.2725    5.0403    9.8953 H       1  LIG1        0.0626
     14 C           1.6496    3.0509    6.8970 C.3     1  LIG1        0.0804
     15 H           0.9641    3.5481    6.4434 H       1  LIG1        0.0660
     16 H           1.3322    2.1636    7.0817 H       1  LIG1        0.0660
     17 H           2.4301    3.0023    6.3402 H       1  LIG1        0.0660
     18 N          -0.9915    4.1781   10.9016 N.ar    1  LIG1       -0.2352
     19 N          -0.1852    3.3374    8.7981 N.ar    1  LIG1       -0.2009
     20 O           1.9832    3.7110    8.1382 O.3     1  LIG1       -0.4792
@<TRIPOS>BOND
     1    17    14    1
     2    15    14    1
     3    14    16    1
     4    14    20    1
     5    20     3    1
     6    19     3   ar
     7    19     1   ar
     8     3     4   ar
     9     2     1    1
    10     1    18   ar
    11    13    12    1
    12     4    12   ar
    13     4     5   ar
    14    12    10   ar
    15    18     5   ar
    16     5     6   ar
    17    10    11    1
    18    10     8   ar
    19     6     8   ar
    20     6     7    1
    21     8     9    1
