@<TRIPOS>MOLECULE
2,4-Dihydroxybenzaldehyde 4-methylthiosemicarbazone
 26 26 0 0 0
SMALL
GASTEIGER

@<TRIPOS>ATOM
      1 S           0.6179    6.7280   25.9226 S.2     1  LIG1       -0.0176
      2 O           1.9926    1.5309   22.7258 O.3     1  LIG1       -0.5063
      3 H           1.7544    2.1931   23.1582 H       1  LIG1        0.2921
      4 O           2.9755    0.3193   18.2198 O.3     1  LIG1       -0.5066
      5 H           3.5952   -0.1999   18.6043 H       1  LIG1        0.2921
      6 N           0.6423    4.0560   25.8042 N.am    1  LIG1       -0.3287
      7 H           0.6309    3.3744   25.3571 H       1  LIG1        0.1474
      8 N           0.6605    5.1810   23.7957 N.am    1  LIG1       -0.2443
      9 H           0.8874    5.9613   23.4113 H       1  LIG1        0.1696
     10 N           0.9972    4.0087   23.1200 N.3     1  LIG1       -0.1335
     11 C           0.6450    5.2094   25.1564 C.2     1  LIG1        0.1451
     12 C           0.5915    3.9203   27.2564 C.3     1  LIG1       -0.0008
     13 H           1.4411    4.2214   27.6420 H       1  LIG1        0.0426
     14 H           0.4409    2.9806   27.4906 H       1  LIG1        0.0426
     15 H          -0.1400    4.4673   27.6103 H       1  LIG1        0.0426
     16 C           1.0397    4.1444   21.8358 C.3     1  LIG1        0.0965
     17 H           0.7511    4.9659   21.4564 H       1  LIG1        0.0565
     18 C           1.5090    3.1012   20.9454 C.ar    1  LIG1        0.0164
     19 C           2.0015    1.8647   21.3963 C.ar    1  LIG1        0.1251
     20 C           2.5125    0.9293   20.5058 C.ar    1  LIG1        0.0216
     21 H           2.8593    0.1048   20.8236 H       1  LIG1        0.0691
     22 C           2.5117    1.2110   19.1419 C.ar    1  LIG1        0.1203
     23 C           2.0262    2.4269   18.6639 C.ar    1  LIG1       -0.0196
     24 H           2.0259    2.6123   17.7319 H       1  LIG1        0.0654
     25 C           1.5458    3.3562   19.5611 C.ar    1  LIG1       -0.0500
     26 H           1.2321    4.1923   19.2371 H       1  LIG1        0.0623
@<TRIPOS>BOND
     1    24    23    1
     2     4     5    1
     3     4    22    1
     4    23    22   ar
     5    23    25   ar
     6    22    20   ar
     7    26    25    1
     8    25    18   ar
     9    20    21    1
    10    20    19   ar
    11    18    19   ar
    12    18    16    1
    13    19     2    1
    14    17    16    1
    15    16    10    1
    16     2     3    1
    17    10     8    1
    18     9     8    1
    19     8    11    1
    20    11     6    1
    21    11     1    2
    22     7     6    1
    23     6    12    1
    24    12    14    1
    25    12    15    1
    26    12    13    1
