@<TRIPOS>MOLECULE
5-(4-Bromophenyl)-1,3,4-thiadiazol-2-amine--4-nitrobenzoic acid (1/1)
 36 37 0 0 0
SMALL
GASTEIGER

@<TRIPOS>ATOM
      1 BR          9.7233    9.9876   29.8624 Br      1  LIG1       -0.0503
      2 S           6.2485   14.1197   25.0718 S.2     1  LIG1       -0.0310
      3 N           5.1391   12.4668   23.4806 N.ar    1  LIG1       -0.1259
      4 N           5.8134   11.6987   24.4072 N.ar    1  LIG1       -0.1396
      5 N           4.7352   14.6820   22.8924 N.pl3   1  LIG1       -0.3361
      6 C           5.2733   13.7514   23.6853 C.ar    1  LIG1        0.1793
      7 C           6.4405   12.4030   25.2890 C.ar    1  LIG1        0.1336
      8 C           7.2423   11.8504   26.3848 C.ar    1  LIG1        0.0091
      9 C           7.7593   10.5682   26.2903 C.ar    1  LIG1       -0.0509
     10 C           8.4790   10.0168   27.3262 C.ar    1  LIG1       -0.0471
     11 C           8.7271   10.7596   28.4530 C.ar    1  LIG1        0.0179
     12 C           8.2423   12.0454   28.5670 C.ar    1  LIG1       -0.0471
     13 C           7.5044   12.5800   27.5371 C.ar    1  LIG1       -0.0509
     14 O           3.5331   11.3519   21.6949 O.3     2  LIG2       -0.4771
     15 O           3.5220   13.3336   20.6819 O.2     2  LIG2       -0.2451
     16 O          -0.2457   10.4466   15.6593 O.2     2  LIG2       -0.1261
     17 O          -0.2403    8.6034   16.7338 O.2     2  LIG2       -0.1261
     18 N           0.0690    9.7652   16.6029 N.pl3   2  LIG2        0.0564
     19 C           2.3828   11.5229   19.6511 C.ar    2  LIG2        0.0590
     20 C           2.1497   12.2140   18.4834 C.ar    2  LIG2       -0.0456
     21 C           1.3860   11.6517   17.4749 C.ar    2  LIG2       -0.0307
     22 C           0.8840   10.3960   17.6723 C.ar    2  LIG2        0.1262
     23 C           1.0877    9.6785   18.8325 C.ar    2  LIG2       -0.0307
     24 C           1.8504   10.2600   19.8281 C.ar    2  LIG2       -0.0456
     25 C           3.2038   12.1562   20.7215 C.2     2  LIG2        0.3368
     26 H           4.4551   14.3076   22.2175 H       1  LIG1        0.1442
     27 H           4.7547   15.5934   23.0085 H       1  LIG1        0.1442
     28 H           7.6149   10.0625   25.4977 H       1  LIG1        0.0625
     29 H           8.8028    9.1259   27.2618 H       1  LIG1        0.0629
     30 H           8.4162   12.5571   29.3492 H       1  LIG1        0.0629
     31 H           7.1671   13.4649   27.6165 H       1  LIG1        0.0625
     32 H           2.5152   13.0832   18.3692 H       2  LIG2        0.0626
     33 H           1.2150   12.1249   16.6678 H       2  LIG2        0.0640
     34 H           0.7156    8.8116   18.9436 H       2  LIG2        0.0640
     35 H           2.0084    9.7892   20.6386 H       2  LIG2        0.0626
     36 H           4.0420   11.7613   22.3117 H       2  LIG2        0.2954
@<TRIPOS>BOND
     1    16    18    2
     2    18    17    2
     3    18    22    1
     4    33    21    1
     5    21    22   ar
     6    21    20   ar
     7    22    23   ar
     8    32    20    1
     9    20    19   ar
    10    23    34    1
    11    23    24   ar
    12    19    24   ar
    13    19    25    1
    14    24    35    1
    15    15    25    2
    16    25    14    1
    17    14    36    1
    18    26     5    1
    19     5    27    1
    20     5     6    1
    21     3     6   ar
    22     3     4   ar
    23     6     2   ar
    24     4     7   ar
    25     2     7   ar
    26     7     8    1
    27    28     9    1
    28     9     8   ar
    29     9    10   ar
    30     8    13   ar
    31    29    10    1
    32    10    11   ar
    33    13    31    1
    34    13    12   ar
    35    11    12   ar
    36    11     1    1
    37    12    30    1
