@<TRIPOS>MOLECULE
(<i>E</i>)-5,5-Dimethyl-2-[3-(4-nitrophenyl)allylidene]cyclohexane-1,3-dione
 39 40 0 0 0
SMALL
GASTEIGER

@<TRIPOS>ATOM
      1 O           8.3041    2.2958    3.5905 O.2     1  LIG1       -0.2919
      2 O           6.1637   -1.0675    6.0777 O.2     1  LIG1       -0.2919
      3 O          10.7336    8.6882    9.0949 O.2     1  LIG1       -0.1261
      4 O          10.4757    7.9031   11.0563 O.2     1  LIG1       -0.1261
      5 N          10.3883    7.8090    9.8455 N.pl3   1  LIG1        0.0564
      6 C           7.6182    1.2884    3.6504 C.2     1  LIG1        0.1670
      7 C           7.2191    0.5670    2.4363 C.3     1  LIG1        0.0161
      8 C           7.1909   -0.9493    2.5915 C.3     1  LIG1       -0.0209
      9 C           6.2329   -1.2771    3.7216 C.3     1  LIG1        0.0161
     10 C           6.5207   -0.5861    5.0165 C.2     1  LIG1        0.1670
     11 C           7.1965    0.7433    4.9816 C.2     1  LIG1        0.0598
     12 C           7.3903    1.3613    6.1466 C.2     1  LIG1       -0.0479
     13 C           8.0198    2.6249    6.4521 C.2     1  LIG1       -0.0604
     14 C           8.1546    3.0157    7.7148 C.2     1  LIG1       -0.0546
     15 C           8.7546    4.2517    8.2290 C.ar    1  LIG1       -0.0249
     16 C           9.2731    5.2506    7.4068 C.ar    1  LIG1       -0.0524
     17 C           9.8066    6.4030    7.9367 C.ar    1  LIG1       -0.0309
     18 C           9.8254    6.5708    9.3010 C.ar    1  LIG1        0.1262
     19 C           9.3386    5.6024   10.1548 C.ar    1  LIG1       -0.0309
     20 C           8.8069    4.4584    9.6048 C.ar    1  LIG1       -0.0524
     21 C           8.5910   -1.4583    2.9068 C.3     1  LIG1       -0.0590
     22 C           6.6979   -1.5956    1.2998 C.3     1  LIG1       -0.0590
     23 H           7.8348    0.7957    1.7218 H       1  LIG1        0.0350
     24 H           6.3361    0.8693    2.1712 H       1  LIG1        0.0350
     25 H           5.3342   -1.0428    3.4403 H       1  LIG1        0.0350
     26 H           6.2507   -2.2349    3.8735 H       1  LIG1        0.0350
     27 H           9.2582    5.1366    6.4845 H       1  LIG1        0.0624
     28 H          10.1512    7.0614    7.3785 H       1  LIG1        0.0640
     29 H           9.3684    5.7192   11.0774 H       1  LIG1        0.0640
     30 H           8.4689    3.8022   10.1705 H       1  LIG1        0.0624
     31 H           8.9168   -1.0279    3.7006 H       1  LIG1        0.0235
     32 H           9.1761   -1.2594    2.1712 H       1  LIG1        0.0235
     33 H           8.5619   -2.4076    3.0458 H       1  LIG1        0.0235
     34 H           6.6927   -2.5506    1.4017 H       1  LIG1        0.0235
     35 H           7.2814   -1.3535    0.5772 H       1  LIG1        0.0235
     36 H           5.8077   -1.2898    1.1074 H       1  LIG1        0.0235
     37 H           7.9309    2.4918    8.4067 H       1  LIG1        0.0623
     38 H           8.3635    3.1644    5.6584 H       1  LIG1        0.0618
     39 H           7.1164    0.9203    6.9582 H       1  LIG1        0.0626
@<TRIPOS>BOND
     1    35    22    1
     2    36    22    1
     3    22    34    1
     4    22     8    1
     5    23     7    1
     6    24     7    1
     7    32    21    1
     8     7     8    1
     9     7     6    1
    10     8    21    1
    11     8     9    1
    12    21    33    1
    13    21    31    1
    14    25     9    1
    15     1     6    2
    16     6    11    1
    17     9    26    1
    18     9    10    1
    19    11    10    1
    20    11    12    2
    21    10     2    2
    22    38    13    1
    23    12    13    1
    24    12    39    1
    25    13    14    2
    26    27    16    1
    27    28    17    1
    28    16    17   ar
    29    16    15   ar
    30    14    15    1
    31    14    37    1
    32    17    18   ar
    33    15    20   ar
    34     3     5    2
    35    18     5    1
    36    18    19   ar
    37    20    19   ar
    38    20    30    1
    39     5     4    2
    40    19    29    1
