@<TRIPOS>MOLECULE
(2<i>E</i>)-<i>N</i>-Methyl-2-(2-oxo-1,2-dihydroacenaphthylen-1-ylidene)hydrazinecarbothioamide
 30 32 0 0 0
SMALL
GASTEIGER

@<TRIPOS>ATOM
      1 S           1.5700    1.6849    4.5666 S.2     1  LIG1       -0.0172
      2 N           4.6089   -0.5772    3.7435 N.2     1  LIG1       -0.1767
      3 C           7.4750   -0.9772    1.6993 C.ar    1  LIG1        0.0023
      4 O           5.1504    1.6390    1.8002 O.2     1  LIG1       -0.2849
      5 N           3.7179    0.4404    3.7744 N.am    1  LIG1       -0.2178
      6 H           3.8249    1.1151    3.2525 H       1  LIG1        0.1762
      7 C           6.6286   -1.4730    2.7127 C.ar    1  LIG1        0.0140
      8 C           2.6534    0.4096    4.6240 C.2     1  LIG1        0.1497
      9 N           2.5715   -0.6239    5.4276 N.am    1  LIG1       -0.3284
     10 H           3.1930   -1.2166    5.3871 H       1  LIG1        0.1474
     11 C           5.5628   -0.4891    2.8896 C.2     1  LIG1        0.1366
     12 C           7.0478    0.2579    1.1845 C.ar    1  LIG1        0.0322
     13 C           5.8293    0.6405    1.9158 C.2     1  LIG1        0.2139
     14 C           6.9335   -2.6659    3.2968 C.ar    1  LIG1       -0.0518
     15 H           6.3829   -3.0315    3.9511 H       1  LIG1        0.0624
     16 C           8.1081   -3.3311    2.8815 C.ar    1  LIG1       -0.0605
     17 H           8.3305   -4.1365    3.2890 H       1  LIG1        0.0618
     18 C           1.4972   -0.8285    6.3788 C.3     1  LIG1       -0.0008
     19 H           1.4795   -0.0995    7.0037 H       1  LIG1        0.0426
     20 H           1.6414   -1.6510    6.8511 H       1  LIG1        0.0426
     21 H           0.6600   -0.8707    5.9117 H       1  LIG1        0.0426
     22 C           8.6300   -1.6249    1.2634 C.ar    1  LIG1       -0.0166
     23 C           9.3449   -0.9733    0.2395 C.ar    1  LIG1       -0.0540
     24 H          10.1192   -1.3634   -0.0967 H       1  LIG1        0.0624
     25 C           7.7604    0.8647    0.1922 C.ar    1  LIG1       -0.0502
     26 H           7.4872    1.6771   -0.1677 H       1  LIG1        0.0625
     27 C           8.9196    0.2222   -0.2687 C.ar    1  LIG1       -0.0605
     28 H           9.4158    0.6244   -0.9437 H       1  LIG1        0.0618
     29 C           8.9331   -2.8445    1.9061 C.ar    1  LIG1       -0.0540
     30 H           9.6963   -3.3181    1.6660 H       1  LIG1        0.0624
@<TRIPOS>BOND
     1    28    27    1
     2    27    25   ar
     3    27    23   ar
     4    26    25    1
     5    24    23    1
     6    25    12   ar
     7    23    22   ar
     8    12     3   ar
     9    12    13    1
    10    22     3   ar
    11    22    29   ar
    12    30    29    1
    13     3     7   ar
    14     4    13    2
    15    29    16   ar
    16    13    11    1
    17     7    11    1
    18     7    14   ar
    19    16    17    1
    20    16    14   ar
    21    11     2    2
    22     6     5    1
    23    14    15    1
    24     2     5    1
    25     5     8    1
    26     1     8    2
    27     8     9    1
    28    10     9    1
    29     9    18    1
    30    21    18    1
    31    18    20    1
    32    18    19    1
