@<TRIPOS>MOLECULE
2-(4-Chlorophenyl)-2-oxoethyl 3-bromobenzoate
 30 31 0 0 0
SMALL
GASTEIGER

@<TRIPOS>ATOM
      1 C           0.3648    7.6010    1.0107 C.ar    1  LIG1        0.0600
      2 C          -0.5928    7.3836    0.0247 C.ar    1  LIG1       -0.0338
      3 H          -0.5130    6.6534   -0.5776 H       1  LIG1        0.0637
      4 C          -1.6603    8.2530   -0.0580 C.ar    1  LIG1        0.0187
      5 C          -1.8219    9.2986    0.8233 C.ar    1  LIG1       -0.0477
      6 H          -2.5766    9.8730    0.7595 H       1  LIG1        0.0629
      7 C          -0.8642    9.4993    1.8064 C.ar    1  LIG1       -0.0599
      8 H          -0.9642   10.2161    2.4213 H       1  LIG1        0.0618
      9 C           0.2362    8.6624    1.8997 C.ar    1  LIG1       -0.0477
     10 H           0.8974    8.8125    2.5652 H       1  LIG1        0.0626
     11 C           1.4916    6.6320    1.0848 C.2     1  LIG1        0.3396
     12 C           3.5282    6.1470    2.1292 C.3     1  LIG1        0.1550
     13 H           4.3372    6.6161    2.4542 H       1  LIG1        0.0782
     14 H           3.7657    5.6578    1.3011 H       1  LIG1        0.0782
     15 C           3.0494    5.1680    3.1808 C.2     1  LIG1        0.2003
     16 C           4.0166    4.1546    3.6884 C.ar    1  LIG1        0.0209
     17 C           5.3279    4.0820    3.2240 C.ar    1  LIG1       -0.0498
     18 H           5.6325    4.7014    2.5714 H       1  LIG1        0.0625
     19 C           6.1940    3.1084    3.7110 C.ar    1  LIG1       -0.0427
     20 H           7.0888    3.0561    3.3966 H       1  LIG1        0.0632
     21 C           5.7304    2.2239    4.6551 C.ar    1  LIG1        0.0410
     22 C           4.4301    2.2758    5.1357 C.ar    1  LIG1       -0.0427
     23 H           4.1297    1.6517    5.7861 H       1  LIG1        0.0632
     24 C           3.5805    3.2495    4.6535 C.ar    1  LIG1       -0.0498
     25 H           2.6904    3.3034    4.9824 H       1  LIG1        0.0625
     26 O           1.5084    5.5694    0.5235 O.2     1  LIG1       -0.2449
     27 O           2.5000    7.0978    1.8490 O.3     1  LIG1       -0.4531
     28 O           1.9043    5.2098    3.5776 O.2     1  LIG1       -0.2884
     29 CL          6.8089    1.0008    5.2706 Cl      1  LIG1       -0.0835
     30 BR         -2.9447    7.9829   -1.4313 Br      1  LIG1       -0.0503
@<TRIPOS>BOND
     1    30     4    1
     2     3     2    1
     3     4     2   ar
     4     4     5   ar
     5     2     1   ar
     6    26    11    2
     7     6     5    1
     8     5     7   ar
     9     1    11    1
    10     1     9   ar
    11    11    27    1
    12    14    12    1
    13     7     9   ar
    14     7     8    1
    15    27    12    1
    16     9    10    1
    17    12    13    1
    18    12    15    1
    19    18    17    1
    20    15    28    2
    21    15    16    1
    22    17    16   ar
    23    17    19   ar
    24    20    19    1
    25    16    24   ar
    26    19    21   ar
    27    24    25    1
    28    24    22   ar
    29    21    22   ar
    30    21    29    1
    31    22    23    1
