@<TRIPOS>MOLECULE
1-Ethyl-5-iodoindolin-2-one
 23 24 0 0 0
SMALL
GASTEIGER

@<TRIPOS>ATOM
      1 I           2.5590   -0.8279   26.4296 I       1  LIG1       -0.0438
      2 C           3.5524    0.5811   25.2325 C.ar    1  LIG1        0.0138
      3 O           6.1922    2.9106   20.5229 O.2     1  LIG1       -0.2749
      4 C           3.7277    0.3166   23.8736 C.ar    1  LIG1       -0.0432
      5 C           4.4390    1.2201   23.1303 C.ar    1  LIG1       -0.0162
      6 C           4.9513    2.3815   23.7136 C.ar    1  LIG1        0.0399
      7 N           5.6456    3.1255   22.7521 N.am    1  LIG1       -0.2711
      8 C           6.3354    4.3886   23.0019 C.3     1  LIG1        0.0170
      9 C           5.4002    5.5525   23.1986 C.3     1  LIG1       -0.0489
     10 H           4.8067    5.6170   22.4459 H       1  LIG1        0.0245
     11 H           5.9088    6.3635   23.2746 H       1  LIG1        0.0245
     12 H           4.8883    5.4203   23.9990 H       1  LIG1        0.0245
     13 C           5.6375    2.5022   21.5322 C.2     1  LIG1        0.2242
     14 C           4.8303    1.2201   21.6735 C.3     1  LIG1        0.0514
     15 C           4.7746    2.6601   25.0494 C.ar    1  LIG1       -0.0390
     16 C           4.0588    1.7326   25.8112 C.ar    1  LIG1       -0.0468
     17 H           5.4260    0.4464   21.4773 H       1  LIG1        0.0408
     18 H           4.0115    1.3640   21.0876 H       1  LIG1        0.0408
     19 H           3.3645   -0.5125   23.4173 H       1  LIG1        0.0631
     20 H           3.9446    1.9343   26.7183 H       1  LIG1        0.0628
     21 H           5.1003    3.4636   25.4259 H       1  LIG1        0.0637
     22 H           6.9075    4.5879   22.1962 H       1  LIG1        0.0466
     23 H           6.8182    4.2985   23.7685 H       1  LIG1        0.0466
@<TRIPOS>BOND
     1     3    13    2
     2    18    14    1
     3    17    14    1
     4    13    14    1
     5    13     7   am
     6    14     5    1
     7    22     8    1
     8    10     9    1
     9     7     8    1
    10     7     6    1
    11     8     9    1
    12     8    23    1
    13     5     6   ar
    14     5     4   ar
    15     9    11    1
    16     9    12    1
    17    19     4    1
    18     6    15   ar
    19     4     2   ar
    20    15    21    1
    21    15    16   ar
    22     2    16   ar
    23     2     1    1
    24    16    20    1
