@<TRIPOS>MOLECULE
Bis(propan-2-yl)azanium 2,2-dichloroacetate
 30 28 0 0 0
SMALL
GASTEIGER

@<TRIPOS>ATOM
      1 CL          3.0653    1.4655    7.9607 Cl      1  LIG1       -0.0922
      2 CL          3.2746   -0.5001   10.0704 Cl      1  LIG1       -0.0922
      3 O           6.1327   -0.7701    8.6515 O.co2   1  LIG1       -0.2433
      4 O           5.8555    1.4290    8.9132 O.co2   1  LIG1       -0.2433
      5 N          -1.4028   -0.4842    9.8681 N.4     2  LIG2        0.2305
      6 H          -2.2273   -0.5493    9.4655 H       2  LIG2        0.2018
      7 H          -1.2145   -1.3040   10.2406 H       2  LIG2        0.2018
      8 C           5.4632    0.2823    8.7059 C.2     1  LIG1        0.3880
      9 C          -0.3806   -0.2118    8.7969 C.3     2  LIG2       -0.0282
     10 H           0.5045   -0.0452    9.2299 H       2  LIG2        0.0845
     11 C          -1.5052    0.5194   10.9813 C.3     2  LIG2       -0.0282
     12 H          -1.7179    1.4144   10.5875 H       2  LIG2        0.0845
     13 C          -0.7798    1.0162    8.0054 C.3     2  LIG2       -0.0219
     14 H          -1.6913    0.9031    7.6654 H       2  LIG2        0.0284
     15 H          -0.1618    1.1339    7.2530 H       2  LIG2        0.0284
     16 H          -0.7424    1.8053    8.5858 H       2  LIG2        0.0284
     17 C           3.9481    0.0326    8.5115 C.3     1  LIG1        0.2077
     18 H           3.8261   -0.6986    7.8408 H       1  LIG1        0.0753
     19 C          -2.6540    0.0995   11.8780 C.3     2  LIG2       -0.0219
     20 H          -3.4778    0.0443   11.3495 H       2  LIG2        0.0284
     21 H          -2.7687    0.7601   12.5932 H       2  LIG2        0.0284
     22 H          -2.4581   -0.7764   12.2712 H       2  LIG2        0.0284
     23 C          -0.2800   -1.4569    7.9325 C.3     2  LIG2       -0.0219
     24 H          -0.0106   -2.2179    8.4876 H       2  LIG2        0.0284
     25 H           0.3876   -1.3121    7.2294 H       2  LIG2        0.0284
     26 H          -1.1512   -1.6424    7.5240 H       2  LIG2        0.0284
     27 C          -0.2062    0.6235   11.7449 C.3     2  LIG2       -0.0219
     28 H           0.0321   -0.2561   12.1062 H       2  LIG2        0.0284
     29 H          -0.3089    1.2624   12.4806 H       2  LIG2        0.0284
     30 H           0.5029    0.9312   11.1426 H       2  LIG2        0.0284
@<TRIPOS>BOND
     1    25    23    1
     2    15    13    1
     3    26    23    1
     4    14    13    1
     5    18    17    1
     6    23    24    1
     7    23     9    1
     8     1    17    1
     9    13    16    1
    10    13     9    1
    11    17     8    1
    12    17     2    1
    13     3     8   ar
    14     8     4   ar
    15     9    10    1
    16     9     5    1
    17     6     5    1
    18     5     7    1
    19     5    11    1
    20    12    11    1
    21    11    27    1
    22    11    19    1
    23    30    27    1
    24    20    19    1
    25    27    28    1
    26    27    29    1
    27    19    22    1
    28    19    21    1
