@<TRIPOS>MOLECULE
2-Amino-5-(4-bromophenyl)-1,3,4-thiadiazol-3-ium 2-carboxy-4,6-dinitrophenolate
 39 40 0 0 0
SMALL
GASTEIGER

@<TRIPOS>ATOM
      1 O           1.3502    6.6302    0.3111 O.3     1  LIG1       -0.2846
      2 O           0.5818    3.9235    3.2428 O.2     1  LIG1       -0.2450
      3 O           1.9038    4.6705    1.6154 O.3     1  LIG1       -0.4770
      4 O           0.1909    8.5289   -1.2292 O.2     1  LIG1       -0.1260
      5 O          -0.6827   10.0542    0.0406 O.2     1  LIG1       -0.1260
      6 O          -3.8072    8.4382    3.2713 O.2     1  LIG1       -0.1261
      7 O          -3.3969    6.6361    4.3758 O.2     1  LIG1       -0.1261
      8 N          -0.3362    8.8982   -0.1788 N.pl3   1  LIG1        0.0603
      9 N          -3.1263    7.4489    3.4982 N.pl3   1  LIG1        0.0565
     10 C          -0.0377    5.9142    2.0932 C.ar    1  LIG1        0.1098
     11 C           0.2813    6.8138    1.0474 C.ar    1  LIG1        0.2230
     12 C          -0.5871    7.9071    0.8580 C.ar    1  LIG1        0.1755
     13 C          -1.6881    8.1248    1.6605 C.ar    1  LIG1        0.0026
     14 C          -1.9465    7.2147    2.6702 C.ar    1  LIG1        0.1294
     15 C          -1.1473    6.1207    2.8987 C.ar    1  LIG1       -0.0136
     16 C           0.8534    4.7323    2.3712 C.2     1  LIG1        0.3407
     17 BR          4.3700   -4.1262    8.9286 Br      2  LIG2       -0.0503
     18 S           4.5206    0.6197    3.5729 S.2     2  LIG2       -0.0333
     19 N           2.3701    1.9014    3.7326 N.ar    2  LIG2       -0.2576
     20 N           2.2724    1.0210    4.7650 N.ar    2  LIG2       -0.1646
     21 N           3.6826    2.6021    1.9384 N.pl3   2  LIG2       -0.3379
     22 C           3.4680    1.8396    2.9723 C.ar    2  LIG2        0.1517
     23 C           3.3176    0.2717    4.8040 C.ar    2  LIG2        0.1314
     24 C           3.5408   -0.7879    5.7853 C.ar    2  LIG2        0.0090
     25 C           2.6174   -1.0489    6.7876 C.ar    2  LIG2       -0.0509
     26 C           2.8482   -2.0369    7.7177 C.ar    2  LIG2       -0.0471
     27 C           4.0100   -2.7914    7.6456 C.ar    2  LIG2        0.0179
     28 C           4.9164   -2.5740    6.6463 C.ar    2  LIG2       -0.0471
     29 C           4.6893   -1.5829    5.7207 C.ar    2  LIG2       -0.0509
     30 H          -2.2523    8.8763    1.5237 H       1  LIG1        0.0664
     31 H          -1.3524    5.5136    3.5989 H       1  LIG1        0.0650
     32 H           1.8593    5.3934    1.1345 H       1  LIG1        0.2954
     33 H           1.7352    2.4891    3.5719 H       2  LIG2        0.1908
     34 H           3.0858    3.2044    1.7055 H       2  LIG2        0.1442
     35 H           4.4257    2.5156    1.4756 H       2  LIG2        0.1442
     36 H           1.8165   -0.5396    6.8312 H       2  LIG2        0.0625
     37 H           2.2141   -2.2023    8.4060 H       2  LIG2        0.0629
     38 H           5.7011   -3.1068    6.5907 H       2  LIG2        0.0629
     39 H           5.3226   -1.4359    5.0279 H       2  LIG2        0.0625
@<TRIPOS>BOND
     1     4     8    2
     2     8     5    2
     3     8    12    1
     4     1    11    1
     5    12    11   ar
     6    12    13   ar
     7    11    10   ar
     8    32     3    1
     9    35    21    1
    10    30    13    1
    11     3    16    1
    12    13    14   ar
    13    34    21    1
    14    21    22    1
    15    10    16    1
    16    10    15   ar
    17    16     2    2
    18    14    15   ar
    19    14     9    1
    20    15    31    1
    21    22    18   ar
    22    22    19   ar
    23     6     9    2
    24     9     7    2
    25    33    19    1
    26    18    23   ar
    27    19    20   ar
    28    20    23   ar
    29    23    24    1
    30    39    29    1
    31    29    24   ar
    32    29    28   ar
    33    24    25   ar
    34    38    28    1
    35    28    27   ar
    36    25    36    1
    37    25    26   ar
    38    27    26   ar
    39    27    17    1
    40    26    37    1
