@<TRIPOS>MOLECULE
4-Acetamidobenzoic acid monohydrate
 25 24 0 0 0
SMALL
GASTEIGER

@<TRIPOS>ATOM
      1 C           4.0732   12.4213    2.6320 C.ar    1  LIG1        0.0589
      2 C           5.3364   12.4092    3.2121 C.ar    1  LIG1       -0.0460
      3 H           5.9944   12.9828    2.8936 H       1  LIG1        0.0626
      4 C           5.6273   11.5480    4.2627 C.ar    1  LIG1       -0.0397
      5 H           6.4722   11.5480    4.6501 H       1  LIG1        0.0636
      6 C           4.6375   10.6848    4.7302 C.ar    1  LIG1        0.0334
      7 C           3.3735   10.7064    4.1585 C.ar    1  LIG1       -0.0397
      8 H           2.7115   10.1363    4.4770 H       1  LIG1        0.0636
      9 C           3.0928   11.5717    3.1177 C.ar    1  LIG1       -0.0460
     10 H           2.2418   11.5826    2.7421 H       1  LIG1        0.0626
     11 C           3.7508   13.3293    1.4989 C.2     1  LIG1        0.3368
     12 C           5.9852    9.3366    6.3431 C.2     1  LIG1        0.2141
     13 C           5.8166    8.4546    7.5515 C.3     1  LIG1        0.0125
     14 H           6.3610    7.6708    7.4532 H       1  LIG1        0.0323
     15 H           4.8955    8.1962    7.6336 H       1  LIG1        0.0323
     16 H           6.0861    8.9353    8.3380 H       1  LIG1        0.0323
     17 H           4.4937   14.6140    0.3933 H       1  LIG1        0.2954
     18 H           4.0847    9.4549    6.1499 H       1  LIG1        0.1548
     19 H           2.7611    8.4531    1.4404 H       0  HOH0        0.2052
     20 H           3.2271    7.4975    2.3154 H       0  HOH0        0.2052
     21 N           4.8318    9.7849    5.8102 N.am    1  LIG1       -0.2857
     22 O           4.6893   14.0675    1.0540 O.3     1  LIG1       -0.4771
     23 O           2.5845   13.3261    1.0353 O.2     1  LIG1       -0.2451
     24 O           7.0946    9.6137    5.8953 O.2     1  LIG1       -0.2758
     25 O           3.4131    7.9479    1.5377 O.3     2  HOH2       -0.4105
@<TRIPOS>BOND
     1    17    22    1
     2    23    11    2
     3    22    11    1
     4    19    25    1
     5    11     1    1
     6    25    20    1
     7     1     9   ar
     8     1     2   ar
     9    10     9    1
    10     3     2    1
    11     9     7   ar
    12     2     4   ar
    13     7     8    1
    14     7     6   ar
    15     4     5    1
    16     4     6   ar
    17     6    21    1
    18    21    18    1
    19    21    12   am
    20    24    12    2
    21    12    13    1
    22    14    13    1
    23    13    15    1
    24    13    16    1
