@<TRIPOS>MOLECULE
1,3-Bis{[4-(acetylsulfanyl)phenyl]ethynyl}azulene
 54 57 0 0 0
SMALL
GASTEIGER

@<TRIPOS>ATOM
      1 S          16.1419    1.0372   11.2031 S.3     1  LIG1       -0.0713
      2 S           2.4243   -3.8000   21.1162 S.3     1  LIG1       -0.0524
      3 O          16.8873    3.5445   11.5192 O.2     1  LIG1       -0.2855
      4 O           1.6698   -1.5343   22.2631 O.2     1  LIG1       -0.2852
      5 C           8.9766    2.6820   15.5523 C.3     1  LIG1        0.1005
      6 C           8.4809    1.5553   16.2208 C.2     1  LIG1       -0.0439
      7 H           8.9137    0.7107   16.2656 H       1  LIG1        0.0603
      8 C           7.2521    1.8644   16.8118 C.2     1  LIG1        0.0306
      9 C           6.9550    3.2211   16.5543 C.2     1  LIG1       -0.0052
     10 C           5.8565    3.9048   17.0523 C.2     1  LIG1       -0.0534
     11 H           5.2703    3.3981   17.6018 H       1  LIG1        0.0624
     12 C           5.4974    5.2364   16.8549 C.2     1  LIG1       -0.0645
     13 H           4.7248    5.5311   17.3219 H       1  LIG1        0.0615
     14 C           6.1262    6.1879   16.0628 C.2     1  LIG1       -0.0763
     15 H           5.6981    7.0361   16.0375 H       1  LIG1        0.0578
     16 C           7.2861    6.0891   15.3014 C.3     1  LIG1        0.0058
     17 H           7.5180    6.8672   14.8087 H       1  LIG1        0.0394
     18 C           8.1571    5.0091   15.1593 C.2     1  LIG1       -0.0707
     19 H           8.9188    5.1609   14.6132 H       1  LIG1        0.0582
     20 C           8.0518    3.7494   15.7124 C.2     1  LIG1       -0.0187
     21 C          10.2122    2.6910   14.8294 C.1     1  LIG1       -0.0831
     22 C          11.2401    2.5841   14.2580 C.1     1  LIG1       -0.0838
     23 C          12.4862    2.3415   13.5774 C.3     1  LIG1        0.0915
     24 C          12.8292    3.0171   12.4086 C.2     1  LIG1       -0.0627
     25 H          12.2875    3.7332   12.1000 H       1  LIG1        0.0588
     26 C          13.9554    2.6487   11.6936 C.2     1  LIG1       -0.0642
     27 H          14.1661    3.0908   10.8789 H       1  LIG1        0.0587
     28 C          14.7781    1.6361   12.1627 C.3     1  LIG1        0.0819
     29 C          14.4980    1.0261   13.3773 C.2     1  LIG1       -0.0642
     30 H          15.0934    0.3774   13.7314 H       1  LIG1        0.0587
     31 C          13.3541    1.3630   14.0707 C.2     1  LIG1       -0.0627
     32 H          13.1545    0.9263   14.8911 H       1  LIG1        0.0588
     33 C          17.1622    2.4798   11.0349 C.2     1  LIG1        0.1875
     34 C          18.3956    2.2094   10.2206 C.3     1  LIG1        0.0044
     35 H          18.1357    1.8976    9.3280 H       1  LIG1        0.0315
     36 H          18.9355    1.5202   10.6623 H       1  LIG1        0.0315
     37 H          18.9203    3.0324   10.1389 H       1  LIG1        0.0315
     38 C           6.4149    0.9470   17.5462 C.1     1  LIG1       -0.0607
     39 C           5.7664    0.1788   18.1441 C.1     1  LIG1       -0.0610
     40 C           4.9607   -0.7745   18.8558 C.ar    1  LIG1        0.0253
     41 C           5.4914   -1.4960   19.9271 C.ar    1  LIG1       -0.0453
     42 H           6.3917   -1.3513   20.1954 H       1  LIG1        0.0630
     43 C           4.7131   -2.4178   20.5965 C.ar    1  LIG1       -0.0467
     44 H           5.0809   -2.9183   21.3150 H       1  LIG1        0.0629
     45 C           3.3864   -2.6128   20.2173 C.ar    1  LIG1        0.0155
     46 C           2.8503   -1.8967   19.1748 C.ar    1  LIG1       -0.0467
     47 H           1.9451   -2.0315   18.9206 H       1  LIG1        0.0629
     48 C           3.6326   -0.9749   18.4928 C.ar    1  LIG1       -0.0453
     49 H           3.2599   -0.4780   17.7743 H       1  LIG1        0.0630
     50 C           1.6782   -2.7323   22.3396 C.2     1  LIG1        0.1909
     51 C           1.0864   -3.5086   23.4777 C.3     1  LIG1        0.0047
     52 H           1.7066   -3.4996   24.2364 H       1  LIG1        0.0315
     53 H           0.9299   -4.4341   23.1955 H       1  LIG1        0.0315
     54 H           0.2363   -3.1007   23.7457 H       1  LIG1        0.0315
@<TRIPOS>BOND
     1    35    34    1
     2    37    34    1
     3    34    36    1
     4    34    33    1
     5    27    26    1
     6    33     1    1
     7    33     3    2
     8     1    28    1
     9    26    28    1
    10    26    24    2
    11    25    24    1
    12    28    29    1
    13    24    23    1
    14    29    30    1
    15    29    31    2
    16    23    31    1
    17    23    22    1
    18    31    32    1
    19    22    21    3
    20    19    18    1
    21    17    16    1
    22    21     5    1
    23    18    16    1
    24    18    20    2
    25    16    14    1
    26     5    20    1
    27     5     6    1
    28    20     9    1
    29    15    14    1
    30    14    12    2
    31     6     7    1
    32     6     8    2
    33     9     8    1
    34     9    10    2
    35     8    38    1
    36    12    10    1
    37    12    13    1
    38    10    11    1
    39    38    39    3
    40    49    48    1
    41    39    40    1
    42    48    40   ar
    43    48    46   ar
    44    40    41   ar
    45    47    46    1
    46    46    45   ar
    47    41    42    1
    48    41    43   ar
    49    45    43   ar
    50    45     2    1
    51    43    44    1
    52     2    50    1
    53     4    50    2
    54    50    51    1
    55    53    51    1
    56    51    54    1
    57    51    52    1
