@<TRIPOS>MOLECULE
2-(4-Chlorobenzylidene)-3,4-dihydronaphthalen-1(2<i>H</i>)-one
 32 34 0 0 0
SMALL
GASTEIGER

@<TRIPOS>ATOM
      1 CL         -6.3395    1.8811    4.3836 Cl      1  LIG1       -0.0835
      2 O           0.2277    2.1475   -1.2928 O.2     1  LIG1       -0.2870
      3 C           0.6697    1.9532   -0.1638 C.2     1  LIG1        0.1895
      4 C           2.1192    1.9510    0.0893 C.ar    1  LIG1        0.0251
      5 C           2.9904    2.4657   -0.8704 C.ar    1  LIG1       -0.0507
      6 H           2.6487    2.7884   -1.6725 H       1  LIG1        0.0625
      7 C           4.3344    2.5027   -0.6498 C.ar    1  LIG1       -0.0611
      8 H           4.9025    2.8526   -1.2982 H       1  LIG1        0.0618
      9 C           4.8556    2.0212    0.5354 C.ar    1  LIG1       -0.0615
     10 H           5.7720    2.0506    0.6911 H       1  LIG1        0.0618
     11 C           3.9953    1.4889    1.4999 C.ar    1  LIG1       -0.0579
     12 H           4.3483    1.1560    2.2939 H       1  LIG1        0.0620
     13 C           2.6291    1.4492    1.2948 C.ar    1  LIG1       -0.0362
     14 C           1.6845    0.8883    2.3095 C.3     1  LIG1       -0.0229
     15 H           2.1058    0.9036    3.1833 H       1  LIG1        0.0317
     16 H           1.4874   -0.0358    2.0888 H       1  LIG1        0.0317
     17 C           0.3867    1.6807    2.3616 C.3     1  LIG1       -0.0200
     18 H          -0.2302    1.2471    2.9714 H       1  LIG1        0.0317
     19 H           0.5672    2.5703    2.7020 H       1  LIG1        0.0317
     20 C          -0.2475    1.7871    1.0065 C.2     1  LIG1        0.0007
     21 C          -1.5622    1.7650    0.7621 C.2     1  LIG1       -0.0478
     22 H          -1.7966    1.7549   -0.1374 H       1  LIG1        0.0627
     23 C          -2.6823    1.7540    1.6955 C.ar    1  LIG1       -0.0246
     24 C          -3.8787    1.1475    1.3212 C.ar    1  LIG1       -0.0532
     25 H          -3.9316    0.7273    0.4934 H       1  LIG1        0.0624
     26 C          -4.9871    1.1514    2.1402 C.ar    1  LIG1       -0.0428
     27 H          -5.7659    0.7124    1.8830 H       1  LIG1        0.0632
     28 C          -4.9226    1.8136    3.3424 C.ar    1  LIG1        0.0410
     29 C          -3.7673    2.4446    3.7403 C.ar    1  LIG1       -0.0428
     30 H          -3.7394    2.9004    4.5506 H       1  LIG1        0.0632
     31 C          -2.6549    2.3992    2.9362 C.ar    1  LIG1       -0.0532
     32 H          -1.8678    2.8048    3.2219 H       1  LIG1        0.0624
@<TRIPOS>BOND
     1     6     5    1
     2     8     7    1
     3     2     3    2
     4     5     7   ar
     5     5     4   ar
     6     7     9   ar
     7     3     4    1
     8     3    20    1
     9    22    21    1
    10     4    13   ar
    11    25    24    1
    12     9    10    1
    13     9    11   ar
    14    21    20    2
    15    21    23    1
    16    20    17    1
    17    13    11   ar
    18    13    14    1
    19    24    23   ar
    20    24    26   ar
    21    11    12    1
    22    23    31   ar
    23    27    26    1
    24    16    14    1
    25    26    28   ar
    26    14    17    1
    27    14    15    1
    28    17    19    1
    29    17    18    1
    30    31    32    1
    31    31    29   ar
    32    28    29   ar
    33    28     1    1
    34    29    30    1
