@<TRIPOS>MOLECULE
Dimethyl-3,4,5,6-tetraphenylcyclohexa-3,5-diene-1,2-dicarboxylate
 132 140 0 0 0
SMALL
GASTEIGER

@<TRIPOS>ATOM
      1 O           6.9421    2.8607   21.1932 O.2     1  LIG1       -0.2501
      2 O           6.9879    5.9608   20.1333 O.3     2  LIG2       -0.4675
      3 O           8.7803    4.0491   16.3425 O.3     2  LIG2       -0.4675
      4 O           4.0846    3.5809   20.3346 O.2     1  LIG1       -0.2501
      5 O           2.7618    2.3522   19.0146 O.3     1  LIG1       -0.4675
      6 O           5.4262    2.7211   22.8332 O.3     1  LIG1       -0.4675
      7 O           8.8334    5.3260   19.0408 O.2     2  LIG2       -0.2501
      8 O           9.6858    2.5794   17.7577 O.2     2  LIG2       -0.2501
      9 C           5.9912    2.3238   21.6981 C.2     1  LIG1        0.3155
     10 C           5.2378    5.1749   14.8521 C.ar    2  LIG2       -0.0170
     11 C           1.7539    2.0246   22.0988 C.ar    1  LIG1       -0.0204
     12 C           3.5982    2.5208   20.0357 C.2     1  LIG1        0.3155
     13 C           4.6111   -0.4156   23.0000 C.2     1  LIG1       -0.0053
     14 C           5.5351   -0.1398   22.0572 C.2     1  LIG1       -0.0171
     15 C           2.5398    0.3199   24.3279 C.ar    1  LIG1       -0.0170
     16 C           8.7346    3.2123   17.3715 C.2     2  LIG2        0.3155
     17 C           6.6959    4.4394   18.3609 C.3     2  LIG2        0.0994
     18 H           5.9148    4.2405   18.9460 H       2  LIG2        0.0474
     19 C           5.6619    2.9937   16.1439 C.2     2  LIG2       -0.0053
     20 C           5.7122    4.4844   16.0883 C.2     2  LIG2       -0.0053
     21 C           7.6492    5.2687   19.1952 C.2     2  LIG2        0.3155
     22 C           3.3528    0.3809   23.0760 C.2     1  LIG1       -0.0053
     23 C           6.2100    5.1890   17.1216 C.2     2  LIG2       -0.0171
     24 C           7.3388    3.0969   17.9844 C.3     2  LIG2        0.0994
     25 H           7.4856    2.5893   18.7894 H       2  LIG2        0.0474
     26 C           5.3374    1.0564   21.1258 C.3     1  LIG1        0.0994
     27 H           5.8336    0.8913   20.2974 H       1  LIG1        0.0474
     28 C           2.9720    1.1680   22.0506 C.2     1  LIG1       -0.0171
     29 C           6.3395    6.6722   17.0691 C.ar    2  LIG2       -0.0204
     30 C           6.7717   -0.9419   21.8246 C.ar    1  LIG1       -0.0204
     31 C           6.1938   -2.3783   25.8241 C.ar    1  LIG1       -0.0612
     32 H           6.9932   -2.3576   26.3372 H       1  LIG1        0.0618
     33 C           1.6277    3.0106   23.0701 C.ar    1  LIG1       -0.0543
     34 H           2.3231    3.1419   23.7051 H       1  LIG1        0.0624
     35 C           3.8593   -2.4233   24.3384 C.ar    1  LIG1       -0.0540
     36 H           3.0517   -2.4411   23.8383 H       1  LIG1        0.0624
     37 C           6.3823    2.3182   17.0742 C.2     2  LIG2       -0.0171
     38 C           6.2642    0.8603   17.3511 C.ar    2  LIG2       -0.0204
     39 C           0.7323    1.8707   21.1607 C.ar    1  LIG1       -0.0543
     40 H           0.8125    1.2140   20.4776 H       1  LIG1        0.0624
     41 C           7.1698    7.2548   16.1169 C.ar    2  LIG2       -0.0543
     42 H           7.6681    6.7032   15.5227 H       2  LIG2        0.0624
     43 C           3.8430    1.2224   20.7944 C.3     1  LIG1        0.0994
     44 H           3.5857    0.4878   20.2034 H       1  LIG1        0.0474
     45 C           4.8321   -1.4645   24.0451 C.ar    1  LIG1       -0.0170
     46 C           1.2106   -0.0854   24.3243 C.ar    1  LIG1       -0.0540
     47 H           0.8006   -0.3584   23.5132 H       1  LIG1        0.0624
     48 C           5.9993   -1.4542   24.8026 C.ar    1  LIG1       -0.0540
     49 H           6.6715   -0.8078   24.6216 H       1  LIG1        0.0624
     50 C           6.6921   -2.3276   21.7000 C.ar    1  LIG1       -0.0543
     51 H           5.8504   -2.7591   21.7897 H       1  LIG1        0.0624
     52 C           7.2771    8.6396   16.0256 C.ar    2  LIG2       -0.0612
     53 H           7.8469    9.0280   15.3738 H       2  LIG2        0.0618
     54 C           4.8440    2.2957   15.1020 C.ar    2  LIG2       -0.0170
     55 C           8.0164   -0.3359   21.6730 C.ar    1  LIG1       -0.0543
     56 H           8.0917    0.6089   21.7427 H       1  LIG1        0.0624
     57 C           5.0097    0.2486   17.4380 C.ar    2  LIG2       -0.0543
     58 H           4.2287    0.7533   17.2461 H       2  LIG2        0.0624
     59 C           5.6386    7.4997   17.9425 C.ar    2  LIG2       -0.0543
     60 H           5.0866    7.1179   18.6131 H       2  LIG2        0.0624
     61 C           3.1134    0.6980   25.5401 C.ar    1  LIG1       -0.0540
     62 H           4.0223    0.9738   25.5617 H       1  LIG1        0.0624
     63 C           4.2108    6.1187   14.8971 C.ar    2  LIG2       -0.0540
     64 H           3.7780    6.3092   15.7224 H       2  LIG2        0.0624
     65 C           4.8911   -1.0826   17.8004 C.ar    2  LIG2       -0.0612
     66 H           4.0310   -1.4823   17.8493 H       2  LIG2        0.0618
     67 C           2.8101    2.0471   13.8137 C.ar    2  LIG2       -0.0612
     68 H           1.9077    2.2948   13.6504 H       2  LIG2        0.0618
     69 C           4.0586   -3.3521   25.3541 C.ar    1  LIG1       -0.0612
     70 H           3.3913   -4.0032   25.5382 H       1  LIG1        0.0618
     71 C           5.7458    8.8863   17.8344 C.ar    2  LIG2       -0.0612
     72 H           5.2535    9.4483   18.4212 H       2  LIG2        0.0618
     73 C           9.1501   -1.1005   21.4227 C.ar    1  LIG1       -0.0612
     74 H           9.9945   -0.6755   21.3275 H       1  LIG1        0.0618
     75 C           3.5261    2.6625   14.8321 C.ar    2  LIG2       -0.0540
     76 H           3.1118    3.3427   15.3503 H       2  LIG2        0.0624
     77 C           3.4097    1.0723   13.0351 C.ar    2  LIG2       -0.0617
     78 H           2.9233    0.6577   12.3304 H       2  LIG2        0.0618
     79 C          -0.4041    2.6738   21.2190 C.ar    1  LIG1       -0.0612
     80 H          -1.0974    2.5631   20.5794 H       1  LIG1        0.0618
     81 C           6.0129   -1.8341   18.0898 C.ar    2  LIG2       -0.0617
     82 H           5.9278   -2.7432   18.3507 H       2  LIG2        0.0618
     83 C           7.3914    0.0901   17.6413 C.ar    2  LIG2       -0.0543
     84 H           8.2558    0.4822   17.5986 H       2  LIG2        0.0624
     85 C           0.4783   -0.0910   25.5049 C.ar    1  LIG1       -0.0612
     86 H          -0.4339   -0.3574   25.4912 H       1  LIG1        0.0618
     87 C           2.3795    0.6783   26.7105 C.ar    1  LIG1       -0.0612
     88 H           2.7852    0.9382   27.5280 H       1  LIG1        0.0618
     89 C           4.7124    0.7074   13.2838 C.ar    2  LIG2       -0.0612
     90 H           5.1235    0.0403   12.7456 H       2  LIG2        0.0618
     91 C           2.3334    3.5725   18.3667 C.3     1  LIG1        0.0817
     92 H           1.7452    3.3530   17.6143 H       1  LIG1        0.0661
     93 H           3.1177    4.0585   18.0373 H       1  LIG1        0.0661
     94 H           1.8497    4.1307   19.0087 H       1  LIG1        0.0661
     95 C           5.4306    1.3022   14.3092 C.ar    2  LIG2       -0.0540
     96 H           6.3270    1.0329   14.4769 H       2  LIG2        0.0624
     97 C           5.8390    4.9085   13.6347 C.ar    2  LIG2       -0.0540
     98 H           6.5328    4.2621   13.5838 H       2  LIG2        0.0624
     99 C           7.8295   -3.0894   21.4474 C.ar    1  LIG1       -0.0612
    100 H           7.7586   -4.0341   21.3706 H       1  LIG1        0.0618
    101 C           5.2242   -3.3277   26.0920 C.ar    1  LIG1       -0.0617
    102 H           5.3618   -3.9638   26.7838 H       1  LIG1        0.0618
    103 C           6.5659    9.4436   16.8732 C.ar    2  LIG2       -0.0617
    104 H           6.6358   10.3883   16.7996 H       2  LIG2        0.0618
    105 C           1.0622    0.2843   26.6952 C.ar    1  LIG1       -0.0617
    106 H           0.5579    0.2721   27.5006 H       1  LIG1        0.0618
    107 C           9.0553   -2.4805   21.3103 C.ar    1  LIG1       -0.0617
    108 H           9.8326   -3.0012   21.1395 H       1  LIG1        0.0618
    109 C           0.4897    3.8033   23.1164 C.ar    1  LIG1       -0.0612
    110 H           0.4095    4.4732   23.7834 H       1  LIG1        0.0618
    111 C          -0.5232    3.6269   22.2018 C.ar    1  LIG1       -0.0617
    112 H          -1.3054    4.1655   22.2480 H       1  LIG1        0.0618
    113 C          10.0942    4.2987   15.8027 C.3     2  LIG2        0.0817
    114 H          10.0173    4.8466   14.9939 H       2  LIG2        0.0661
    115 H          10.5237    3.4459   15.5814 H       2  LIG2        0.0661
    116 H          10.6364    4.7724   16.4666 H       2  LIG2        0.0661
    117 C           5.8980    3.9975   23.3345 C.3     1  LIG1        0.0817
    118 H           5.6153    4.7124   22.7259 H       1  LIG1        0.0661
    119 H           6.8768    3.9853   23.3917 H       1  LIG1        0.0661
    120 H           5.5221    4.1589   24.2260 H       1  LIG1        0.0661
    121 C           4.4307    6.5071   12.5380 C.ar    2  LIG2       -0.0617
    122 H           4.1550    6.9602   11.7507 H       2  LIG2        0.0618
    123 C           5.4344    5.5811   12.4824 C.ar    2  LIG2       -0.0612
    124 H           5.8596    5.3944   11.6528 H       2  LIG2        0.0618
    125 C           7.2597   -1.2487   17.9946 C.ar    2  LIG2       -0.0612
    126 H           8.0359   -1.7656   18.1744 H       2  LIG2        0.0618
    127 C           7.7873    6.8927   20.8920 C.3     2  LIG2        0.0817
    128 H           8.1372    7.5851   20.2935 H       2  LIG2        0.0661
    129 H           8.5321    6.4170   21.3119 H       2  LIG2        0.0661
    130 H           7.2321    7.3102   21.5860 H       2  LIG2        0.0661
    131 C           3.8235    6.7782   13.7393 C.ar    2  LIG2       -0.0612
    132 H           3.1291    7.4256   13.7797 H       2  LIG2        0.0618
@<TRIPOS>BOND
     1   124   123    1
     2   122   121    1
     3    78    77    1
     4   123   121   ar
     5   123    97   ar
     6   121   131   ar
     7    90    89    1
     8    77    89   ar
     9    77    67   ar
    10    89    95   ar
    11    98    97    1
    12    97    10   ar
    13    68    67    1
    14   131   132    1
    15   131    63   ar
    16    67    75   ar
    17    95    96    1
    18    95    54   ar
    19    75    54   ar
    20    75    76    1
    21    10    63   ar
    22    10    20    1
    23    63    64    1
    24   114   113    1
    25    54    19    1
    26    53    52    1
    27    42    41    1
    28   115   113    1
    29   113     3    1
    30   113   116    1
    31    52    41   ar
    32    52   103   ar
    33    20    19    1
    34    20    23    2
    35    41    29   ar
    36    19    37    2
    37     3    16    1
    38   104   103    1
    39   103    71   ar
    40    29    23    1
    41    29    59   ar
    42    37    38    1
    43    37    24    1
    44    23    17    1
    45    58    57    1
    46    38    57   ar
    47    38    83   ar
    48    16     8    2
    49    16    24    1
    50    57    65   ar
    51    84    83    1
    52    92    91    1
    53    83   125   ar
    54    65    66    1
    55    65    81   ar
    56    71    59   ar
    57    71    72    1
    58    59    60    1
    59    24    17    1
    60    24    25    1
    61   125    81   ar
    62   125   126    1
    63    93    91    1
    64    81    82    1
    65    17    18    1
    66    17    21    1
    67    91    94    1
    68    91     5    1
    69     5    12    1
    70     7    21    2
    71    21     2    1
    72    12     4    2
    73    12    43    1
    74     2   127    1
    75    44    43    1
    76   128   127    1
    77    27    26    1
    78    40    39    1
    79    80    79    1
    80    43    26    1
    81    43    28    1
    82   127   129    1
    83   127   130    1
    84    26     9    1
    85    26    14    1
    86   108   107    1
    87    39    79   ar
    88    39    11   ar
    89     1     9    2
    90    79   111   ar
    91   107    73   ar
    92   107    99   ar
    93    74    73    1
    94   100    99    1
    95    73    55   ar
    96    99    50   ar
    97    55    56    1
    98    55    30   ar
    99     9     6    1
   100    50    51    1
   101    50    30   ar
   102    30    14    1
   103    28    11    1
   104    28    22    2
   105    14    13    2
   106    11    33   ar
   107   111   112    1
   108   111   109   ar
   109   118   117    1
   110     6   117    1
   111    13    22    1
   112    13    45    1
   113    33   109   ar
   114    33    34    1
   115    22    15    1
   116   109   110    1
   117   117   119    1
   118   117   120    1
   119    47    46    1
   120    36    35    1
   121    45    35   ar
   122    45    48   ar
   123    46    15   ar
   124    46    85   ar
   125    15    61   ar
   126    35    69   ar
   127    49    48    1
   128    48    31   ar
   129    69    70    1
   130    69   101   ar
   131    86    85    1
   132    85   105   ar
   133    61    62    1
   134    61    87   ar
   135    31   101   ar
   136    31    32    1
   137   101   102    1
   138   105    87   ar
   139   105   106    1
   140    87    88    1
