@<TRIPOS>MOLECULE
(2<i>E</i>)-3-(2-Bromophenyl)-2-phenylprop-2-enoic acid
 58 60 0 0 0
SMALL
GASTEIGER

@<TRIPOS>ATOM
      1 C           0.9397    2.2540    5.7435 C.ar    1  LIG1        0.0250
      2 C           0.9809    1.3037    6.7540 C.ar    1  LIG1       -0.0472
      3 H           1.2404    1.5474    7.6357 H       1  LIG1        0.0629
      4 C           0.6372   -0.0089    6.4572 C.ar    1  LIG1       -0.0607
      5 H           0.6583   -0.6696    7.1393 H       1  LIG1        0.0618
      6 C           0.2629   -0.3602    5.1666 C.ar    1  LIG1       -0.0611
      7 H           0.0490   -1.2628    4.9621 H       1  LIG1        0.0618
      8 C           0.2021    0.6098    4.1754 C.ar    1  LIG1       -0.0535
      9 H          -0.0724    0.3642    3.3001 H       1  LIG1        0.0624
     10 C           0.5373    1.9419    4.4397 C.ar    1  LIG1       -0.0103
     11 C           0.5351    2.9476    3.3581 C.2     1  LIG1       -0.0390
     12 H           1.2954    3.5124    3.2915 H       1  LIG1        0.0632
     13 C          -0.4488    3.1349    2.4586 C.2     1  LIG1        0.0665
     14 C          -0.2386    4.1159    1.3597 C.2     1  LIG1        0.3374
     15 C          -1.7744    2.4563    2.5004 C.ar    1  LIG1       -0.0110
     16 C          -2.4971    2.3973    3.6977 C.ar    1  LIG1       -0.0538
     17 H          -2.1694    2.8407    4.4709 H       1  LIG1        0.0624
     18 C          -3.6919    1.6933    3.7595 C.ar    1  LIG1       -0.0612
     19 H          -4.1751    1.6543    4.5770 H       1  LIG1        0.0618
     20 C          -4.1855    1.0449    2.6339 C.ar    1  LIG1       -0.0617
     21 H          -4.9894    0.5420    2.6873 H       1  LIG1        0.0618
     22 C          -3.4962    1.1361    1.4286 C.ar    1  LIG1       -0.0612
     23 H          -3.8440    0.7186    0.6487 H       1  LIG1        0.0618
     24 C          -2.2989    1.8377    1.3654 C.ar    1  LIG1       -0.0538
     25 H          -1.8323    1.8963    0.5409 H       1  LIG1        0.0624
     26 O          -1.1532    4.4938    0.6314 O.2     1  LIG1       -0.2451
     27 O           1.0044    4.5415    1.2271 O.3     1  LIG1       -0.4771
     28 H           0.9899    5.1362    0.6384 H       1  LIG1        0.2954
     29 BR          1.4199    4.0430    6.1673 Br      1  LIG1       -0.0497
     30 C          10.1441    2.1105    7.4885 C.ar    2  LIG2        0.0250
     31 C          11.0943    1.1485    7.1840 C.ar    2  LIG2       -0.0472
     32 H          12.0196    1.3478    7.2574 H       2  LIG2        0.0629
     33 C          10.6773   -0.1044    6.7730 C.ar    2  LIG2       -0.0607
     34 H          11.3192   -0.7721    6.5642 H       2  LIG2        0.0618
     35 C           9.3231   -0.3893    6.6657 C.ar    2  LIG2       -0.0611
     36 H           9.0385   -1.2551    6.3999 H       2  LIG2        0.0618
     37 C           8.3842    0.5956    6.9488 C.ar    2  LIG2       -0.0535
     38 H           7.4597    0.3969    6.8518 H       2  LIG2        0.0624
     39 C           8.7680    1.8733    7.3733 C.ar    2  LIG2       -0.0103
     40 C           7.7696    2.8746    7.7899 C.2     2  LIG2       -0.0390
     41 H           7.9888    3.3947    8.5549 H       2  LIG2        0.0632
     42 C           6.5846    3.1364    7.2126 C.2     2  LIG2        0.0665
     43 C           5.6690    4.1196    7.8567 C.2     2  LIG2        0.3374
     44 C           6.1094    2.5624    5.9230 C.ar    2  LIG2       -0.0110
     45 C           6.8828    2.6903    4.7639 C.ar    2  LIG2       -0.0538
     46 H           7.7035    3.1689    4.7944 H       2  LIG2        0.0624
     47 C           6.4569    2.1217    3.5695 C.ar    2  LIG2       -0.0612
     48 H           6.9908    2.2071    2.7883 H       2  LIG2        0.0618
     49 C           5.2531    1.4283    3.5118 C.ar    2  LIG2       -0.0617
     50 H           4.9700    1.0305    2.6959 H       2  LIG2        0.0618
     51 C           4.4642    1.3190    4.6535 C.ar    2  LIG2       -0.0612
     52 H           3.6387    0.8495    4.6181 H       2  LIG2        0.0618
     53 C           4.8817    1.8956    5.8436 C.ar    2  LIG2       -0.0538
     54 H           4.3280    1.8375    6.6139 H       2  LIG2        0.0624
     55 O           4.6515    4.5067    7.2958 O.2     2  LIG2       -0.2451
     56 O           6.0284    4.5321    9.0619 O.3     2  LIG2       -0.4771
     57 H           5.4878    5.0925    9.2909 H       2  LIG2        0.2954
     58 BR         10.7752    3.8205    8.0632 Br      2  LIG2       -0.0497
@<TRIPOS>BOND
     1    25    24    1
     2    26    14    2
     3    28    27    1
     4    23    22    1
     5    27    14    1
     6    14    13    1
     7    24    22   ar
     8    24    15   ar
     9    22    20   ar
    10    13    15    1
    11    13    11    2
    12    15    16   ar
    13    20    21    1
    14    20    18   ar
    15    50    49    1
    16    48    47    1
    17    12    11    1
    18     9     8    1
    19    11    10    1
    20    49    47   ar
    21    49    51   ar
    22    47    45   ar
    23    16    18   ar
    24    16    17    1
    25    18    19    1
    26     8    10   ar
    27     8     6   ar
    28    10     1   ar
    29    52    51    1
    30    51    53   ar
    31    45    46    1
    32    45    44   ar
    33     7     6    1
    34     6     4   ar
    35     1    29    1
    36     1     2   ar
    37    53    44   ar
    38    53    54    1
    39    44    42    1
    40    36    35    1
    41     4     2   ar
    42     4     5    1
    43    34    33    1
    44    35    33   ar
    45    35    37   ar
    46     2     3    1
    47    33    31   ar
    48    38    37    1
    49    37    39   ar
    50    31    32    1
    51    31    30   ar
    52    42    40    2
    53    42    43    1
    54    55    43    2
    55    39    30   ar
    56    39    40    1
    57    30    58    1
    58    40    41    1
    59    43    56    1
    60    56    57    1
