@<TRIPOS>MOLECULE
(<i>E</i>)-4-[1-(2-Carbamothioylhydrazinylidene)ethyl]phenyl benzoate
 37 38 0 0 0
SMALL
GASTEIGER

@<TRIPOS>ATOM
      1 C           0.6290    6.0735    1.2402 C.ar    1  LIG1       -0.0478
      2 H           1.5503    6.1981    1.2565 H       1  LIG1        0.0626
      3 C          -0.1624    6.8328    0.3998 C.ar    1  LIG1       -0.0610
      4 H           0.2273    7.4831   -0.1385 H       1  LIG1        0.0618
      5 C          -1.5222    6.6330    0.3532 C.ar    1  LIG1       -0.0617
      6 H          -2.0452    7.1405   -0.2238 H       1  LIG1        0.0618
      7 C          -2.1128    5.6833    1.1583 C.ar    1  LIG1       -0.0610
      8 H          -3.0321    5.5479    1.1210 H       1  LIG1        0.0618
      9 C          -1.3386    4.9333    2.0214 C.ar    1  LIG1       -0.0478
     10 H          -1.7359    4.3013    2.5763 H       1  LIG1        0.0626
     11 C           0.0368    5.1252    2.0584 C.ar    1  LIG1        0.0594
     12 C           0.8082    4.3443    3.0463 C.2     1  LIG1        0.3444
     13 C           2.9730    3.7217    3.7332 C.ar    1  LIG1        0.1320
     14 C           2.9300    2.3596    3.9159 C.ar    1  LIG1       -0.0186
     15 H           2.3574    1.8326    3.4073 H       1  LIG1        0.0654
     16 C           3.7537    1.7846    4.8706 C.ar    1  LIG1       -0.0494
     17 H           3.7093    0.8677    5.0221 H       1  LIG1        0.0625
     18 C           4.6466    2.5591    5.6064 C.ar    1  LIG1       -0.0023
     19 C           4.7055    3.9292    5.3529 C.ar    1  LIG1       -0.0494
     20 H           5.3194    4.4566    5.8109 H       1  LIG1        0.0625
     21 C           3.8609    4.5116    4.4277 C.ar    1  LIG1       -0.0186
     22 H           3.8921    5.4284    4.2754 H       1  LIG1        0.0654
     23 C           5.5156    1.9736    6.6631 C.2     1  LIG1        0.0633
     24 C           5.0525    0.7650    7.3998 C.3     1  LIG1       -0.0203
     25 H           5.7973    0.3580    7.8482 H       1  LIG1        0.0293
     26 H           4.6709    0.1387    6.7794 H       1  LIG1        0.0293
     27 H           4.3902    1.0190    8.0469 H       1  LIG1        0.0293
     28 C           8.6968    2.6282    7.9217 C.2     1  LIG1        0.1473
     29 N           6.6185    2.5983    6.8558 N.2     1  LIG1       -0.1853
     30 N           7.4318    2.1759    7.8895 N.am    1  LIG1       -0.2183
     31 H           7.1374    1.6402    8.4946 H       1  LIG1        0.1762
     32 N           9.1196    3.2912    6.8523 N.am    1  LIG1       -0.3394
     33 H           8.5912    3.4125    6.1842 H       1  LIG1        0.1440
     34 H           9.9220    3.5996    6.8276 H       1  LIG1        0.1440
     35 O           0.3316    3.7701    3.9854 O.2     1  LIG1       -0.2445
     36 O           2.1407    4.3634    2.7981 O.3     1  LIG1       -0.4223
     37 S           9.6914    2.3228    9.2388 S.2     1  LIG1       -0.0174
@<TRIPOS>BOND
     1     6     5    1
     2     4     3    1
     3     5     3   ar
     4     5     7   ar
     5     3     1   ar
     6     8     7    1
     7     7     9   ar
     8     1     2    1
     9     1    11   ar
    10     9    11   ar
    11     9    10    1
    12    11    12    1
    13    36    12    1
    14    36    13    1
    15    12    35    2
    16    15    14    1
    17    13    14   ar
    18    13    21   ar
    19    14    16   ar
    20    22    21    1
    21    21    19   ar
    22    16    17    1
    23    16    18   ar
    24    19    18   ar
    25    19    20    1
    26    18    23    1
    27    33    32    1
    28    23    29    2
    29    23    24    1
    30    26    24    1
    31    34    32    1
    32    32    28    1
    33    29    30    1
    34    24    25    1
    35    24    27    1
    36    30    28    1
    37    30    31    1
    38    28    37    2
