@<TRIPOS>MOLECULE
2,5-Bis{[(<i>R</i>)-(-)-1-(4-methoxyphenyl)ethyl]iminomethyl}thiophene
 28 28 0 0 0
SMALL
GASTEIGER

@<TRIPOS>ATOM
      1 S          12.2236    2.2266    3.7515 S.3     1  LIG1       -0.0505
      2 N          14.1876    1.9113    1.3918 N.2     1  LIG1       -0.2828
      3 C          13.8082    3.0791    1.6424 C.2     1  LIG1        0.0370
      4 H          14.1032    3.7620    1.0842 H       1  LIG1        0.0837
      5 C          12.9373    3.4348    2.7499 C.2     1  LIG1        0.0367
      6 C          12.6299    4.6734    3.1731 C.2     1  LIG1       -0.0449
      7 H          12.9210    5.4485    2.7499 H       1  LIG1        0.0630
      8 C          15.1600    1.7448    0.2896 C.3     1  LIG1        0.0729
      9 H          15.1390    2.5526   -0.2656 H       1  LIG1        0.0591
     10 C          14.7636    0.5729   -0.5657 C.3     1  LIG1       -0.0385
     11 H          13.8621    0.6913   -0.8734 H       1  LIG1        0.0253
     12 H          14.8222   -0.2344   -0.0488 H       1  LIG1        0.0253
     13 H          15.3529    0.5122   -1.3198 H       1  LIG1        0.0253
     14 C          16.5480    1.6175    0.8921 C.ar    1  LIG1       -0.0232
     15 C          17.5084    2.5871    0.6535 C.ar    1  LIG1       -0.0531
     16 H          17.2937    3.3224    0.1261 H       1  LIG1        0.0622
     17 C          18.7718    2.4812    1.1825 C.ar    1  LIG1       -0.0196
     18 H          19.4045    3.1398    1.0077 H       1  LIG1        0.0654
     19 C          19.1041    1.4003    1.9718 C.ar    1  LIG1        0.1201
     20 C          18.1623    0.4432    2.2464 C.ar    1  LIG1       -0.0196
     21 H          18.3749   -0.2790    2.7927 H       1  LIG1        0.0654
     22 C          16.8926    0.5568    1.7070 C.ar    1  LIG1       -0.0531
     23 H          16.2582   -0.0958    1.8968 H       1  LIG1        0.0622
     24 O          20.4037    1.3724    2.4213 O.3     1  LIG1       -0.4951
     25 C          20.8164    0.2052    3.1430 C.3     1  LIG1        0.0788
     26 H          21.7586    0.2582    3.3254 H       1  LIG1        0.0660
     27 H          20.6366   -0.5770    2.6163 H       1  LIG1        0.0660
     28 H          20.3316    0.1535    3.9706 H       1  LIG1        0.0660
@<TRIPOS>BOND
     1    13    10    1
     2    11    10    1
     3    10    12    1
     4    10     8    1
     5     9     8    1
     6    16    15    1
     7     8    14    1
     8     8     2    1
     9    15    14   ar
    10    15    17   ar
    11    14    22   ar
    12    18    17    1
    13     4     3    1
    14    17    19   ar
    15     2     3    2
    16     3     5    1
    17    22    23    1
    18    22    20   ar
    19    19    20   ar
    20    19    24    1
    21    20    21    1
    22    24    25    1
    23    27    25    1
    24     7     6    1
    25     5     6    2
    26     5     1    1
    27    25    26    1
    28    25    28    1
