@<TRIPOS>MOLECULE
Methyl 3'-benzamido-4'-(4-methoxyphenyl)-1'-methylspiro[indeno[1,2-<i>b</i>]quinoxaline-11,2'-pyrrolidine]-3'-carboxylate
 72 78 0 0 0
SMALL
GASTEIGER

@<TRIPOS>ATOM
      1 O           7.5788    4.1473    1.5971 O.2     1  LIG1       -0.2702
      2 C           8.2593    2.2833    4.8001 C.3     1  LIG1        0.0817
      3 H           8.1294    1.3628    5.0412 H       1  LIG1        0.0661
      4 H           8.4493    2.7969    5.5881 H       1  LIG1        0.0661
      5 H           8.9942    2.3534    4.1867 H       1  LIG1        0.0661
      6 N           4.0436    4.7170    4.7216 N.ar    1  LIG1       -0.2456
      7 N           4.5703    3.3134    7.1620 N.ar    1  LIG1       -0.2433
      8 N           5.4653    4.1524    2.3636 N.am    1  LIG1       -0.2934
      9 H           4.7925    4.6411    2.5825 H       1  LIG1        0.1502
     10 N           3.0512    2.6379    2.7358 N.3     1  LIG1       -0.2880
     11 O           7.0656    2.7882    4.1761 O.3     1  LIG1       -0.4664
     12 C           4.2069    3.4272    4.7799 C.ar    1  LIG1        0.0952
     13 C           5.3658    2.7236    2.5611 C.3     1  LIG1        0.1681
     14 C           5.3170    2.6119   -0.0079 C.ar    1  LIG1       -0.0404
     15 O           7.2355    1.1904    2.6192 O.2     1  LIG1       -0.2483
     16 C           4.3465    1.1149    4.3391 C.ar    1  LIG1       -0.0094
     17 C           4.2123    2.4645    3.6034 C.3     1  LIG1        0.1246
     18 C           4.4153    2.7271    6.0026 C.ar    1  LIG1        0.0955
     19 C           4.4384    1.3060    5.7178 C.ar    1  LIG1        0.0076
     20 C           4.8417    1.9899    1.2840 C.3     1  LIG1        0.0311
     21 H           5.1695    1.0666    1.3117 H       1  LIG1        0.0388
     22 C           4.4970    4.6810    7.1208 C.ar    1  LIG1        0.0899
     23 C           6.6818    2.1463    3.0696 C.2     1  LIG1        0.3338
     24 C           4.2019    5.3752    5.9242 C.ar    1  LIG1        0.0896
     25 C           6.5572    4.7593    1.8547 C.2     1  LIG1        0.2450
     26 C           6.4313    6.2323    1.6189 C.ar    1  LIG1        0.0367
     27 C           6.4338    2.1203   -0.6493 C.ar    1  LIG1       -0.0579
     28 H           6.8493    1.3546   -0.3238 H       1  LIG1        0.0620
     29 C           4.1063    6.7720    5.9543 C.ar    1  LIG1       -0.0342
     30 H           3.8778    7.2380    5.1827 H       1  LIG1        0.0639
     31 C           4.3618   -0.1683    3.8397 C.ar    1  LIG1       -0.0557
     32 H           4.3227   -0.3170    2.9227 H       1  LIG1        0.0621
     33 C           6.3624    3.8887   -2.2821 C.ar    1  LIG1       -0.0504
     34 C           3.3202    1.9551    1.4768 C.3     1  LIG1        0.0092
     35 H           2.8745    2.4075    0.7443 H       1  LIG1        0.0434
     36 H           3.0043    1.0387    1.5130 H       1  LIG1        0.0434
     37 C           4.7121    3.7312   -0.5479 C.ar    1  LIG1       -0.0579
     38 H           3.9386    4.0661   -0.1538 H       1  LIG1        0.0620
     39 C           6.9474    2.7491   -1.7717 C.ar    1  LIG1       -0.0586
     40 H           7.7004    2.3956   -2.1879 H       1  LIG1        0.0620
     41 C           5.2304    4.3631   -1.6594 C.ar    1  LIG1       -0.0586
     42 H           4.8082    5.1222   -1.9933 H       1  LIG1        0.0620
     43 C           4.7312    5.4162    8.2950 C.ar    1  LIG1       -0.0342
     44 H           4.9321    4.9714    9.0864 H       1  LIG1        0.0639
     45 C           4.5117    0.2350    6.5952 C.ar    1  LIG1       -0.0522
     46 H           4.5660    0.3754    7.5135 H       1  LIG1        0.0624
     47 C           5.5786    7.0347    2.3466 C.ar    1  LIG1       -0.0496
     48 H           5.0380    6.6564    3.0029 H       1  LIG1        0.0625
     49 C           4.5016   -1.0342    6.0810 C.ar    1  LIG1       -0.0611
     50 H           4.5396   -1.7657    6.6549 H       1  LIG1        0.0618
     51 C           7.2081    6.7980    0.6198 C.ar    1  LIG1       -0.0496
     52 H           7.7794    6.2661    0.1143 H       1  LIG1        0.0625
     53 C           1.7673    2.2798    3.3096 C.3     1  LIG1       -0.0115
     54 H           1.7281    1.3296    3.4397 H       1  LIG1        0.0391
     55 H           1.0641    2.5505    2.7145 H       1  LIG1        0.0391
     56 H           1.6593    2.7228    4.1540 H       1  LIG1        0.0391
     57 C           6.2997    8.9462    1.1291 C.ar    1  LIG1       -0.0617
     58 H           6.2669    9.8629    0.9715 H       1  LIG1        0.0618
     59 C           4.6671    6.7707    8.2809 C.ar    1  LIG1       -0.0596
     60 H           4.8386    7.2476    9.0605 H       1  LIG1        0.0618
     61 C           4.3470    7.4512    7.1115 C.ar    1  LIG1       -0.0596
     62 H           4.2953    8.3800    7.1189 H       1  LIG1        0.0618
     63 C           4.4366   -1.2358    4.7192 C.ar    1  LIG1       -0.0614
     64 H           4.4425   -2.1031    4.3853 H       1  LIG1        0.0618
     65 C           6.9585    4.6160   -3.4617 C.3     1  LIG1       -0.0397
     66 H           6.2603    5.0499   -3.9567 H       1  LIG1        0.0278
     67 H           7.4113    3.9885   -4.0302 H       1  LIG1        0.0278
     68 H           7.5848    5.2740   -3.1499 H       1  LIG1        0.0278
     69 C           5.5180    8.3947    2.1101 C.ar    1  LIG1       -0.0610
     70 H           4.9498    8.9315    2.6138 H       1  LIG1        0.0618
     71 C           7.1274    8.1539    0.3798 C.ar    1  LIG1       -0.0610
     72 H           7.6416    8.5332   -0.2966 H       1  LIG1        0.0618
@<TRIPOS>BOND
     1    67    65    1
     2    66    65    1
     3    65    68    1
     4    65    33    1
     5    33    39   ar
     6    33    41   ar
     7    40    39    1
     8    42    41    1
     9    39    27   ar
    10    41    37   ar
    11    27    28    1
    12    27    14   ar
    13    37    38    1
    14    37    14   ar
    15    72    71    1
    16    14    20    1
    17    52    51    1
    18    71    51   ar
    19    71    57   ar
    20    51    26   ar
    21    35    34    1
    22    58    57    1
    23    57    69   ar
    24    20    21    1
    25    20    34    1
    26    20    13    1
    27    34    36    1
    28    34    10    1
    29     1    25    2
    30    26    25    1
    31    26    47   ar
    32    25     8   am
    33    69    47   ar
    34    69    70    1
    35    47    48    1
    36     8    13    1
    37     8     9    1
    38    13    23    1
    39    13    17    1
    40    15    23    2
    41    55    53    1
    42    10    53    1
    43    10    17    1
    44    32    31    1
    45    23    11    1
    46    53    54    1
    47    53    56    1
    48    17    16    1
    49    17    12    1
    50    31    16   ar
    51    31    63   ar
    52    11     2    1
    53     5     2    1
    54    16    19   ar
    55    64    63    1
    56    63    49   ar
    57     6    12   ar
    58     6    24   ar
    59    12    18   ar
    60     2     3    1
    61     2     4    1
    62    30    29    1
    63    19    18    1
    64    19    45   ar
    65    24    29   ar
    66    24    22   ar
    67    29    61   ar
    68    18     7   ar
    69    49    45   ar
    70    49    50    1
    71    45    46    1
    72    61    62    1
    73    61    59   ar
    74    22     7   ar
    75    22    43   ar
    76    59    43   ar
    77    59    60    1
    78    43    44    1
