@<TRIPOS>MOLECULE
Methyl (<i>E</i>)-4-[2-(8-hydroxyquinolin-2-yl)vinyl]benzoate
 38 40 0 0 0
SMALL
GASTEIGER

@<TRIPOS>ATOM
      1 N          10.2873    2.1777    2.2622 N.ar    1  LIG1       -0.2436
      2 O          12.2706    3.9920    2.6403 O.3     1  LIG1       -0.5046
      3 C          11.4379    1.7440    2.8565 C.ar    1  LIG1        0.1129
      4 C           3.2175    2.6410   -0.1450 C.ar    1  LIG1        0.0590
      5 C          11.6563    0.4146    3.2698 C.ar    1  LIG1        0.0040
      6 C           9.3003    1.3052    2.0971 C.ar    1  LIG1        0.0647
      7 O           0.9033    2.3981   -0.3633 O.3     1  LIG1       -0.4645
      8 C           5.6699    1.7137    0.8282 C.ar    1  LIG1       -0.0249
      9 C          10.5832   -0.4786    3.0682 C.ar    1  LIG1       -0.0504
     10 H          10.6713   -1.3703    3.3178 H       1  LIG1        0.0625
     11 C          12.4580    2.7087    3.0534 C.ar    1  LIG1        0.1427
     12 C           9.4232   -0.0446    2.5126 C.ar    1  LIG1       -0.0357
     13 H           8.7107   -0.6318    2.4043 H       1  LIG1        0.0639
     14 C           1.9364    3.1666   -0.6819 C.2     1  LIG1        0.3389
     15 O           1.8400    4.1619   -1.3528 O.2     1  LIG1       -0.2450
     16 C           8.0891    1.8194    1.4566 C.2     1  LIG1       -0.0357
     17 H           8.1489    2.6522    1.0479 H       1  LIG1        0.0639
     18 C           6.9189    1.2092    1.4062 C.2     1  LIG1       -0.0526
     19 H           6.8828    0.3591    1.7822 H       1  LIG1        0.0624
     20 C           4.4010    3.2549   -0.5165 C.ar    1  LIG1       -0.0472
     21 H           4.3773    3.9856   -1.0914 H       1  LIG1        0.0626
     22 C          12.8839    0.0708    3.8700 C.ar    1  LIG1       -0.0523
     23 H          13.0442   -0.8064    4.1338 H       1  LIG1        0.0624
     24 C          13.6265    2.3514    3.6679 C.ar    1  LIG1       -0.0180
     25 H          14.2842    2.9900    3.8240 H       1  LIG1        0.0655
     26 C           5.6126    2.7997   -0.0455 C.ar    1  LIG1       -0.0538
     27 H           6.3984    3.2200   -0.3124 H       1  LIG1        0.0624
     28 C           3.2657    1.5508    0.7019 C.ar    1  LIG1       -0.0472
     29 H           2.4784    1.1218    0.9504 H       1  LIG1        0.0626
     30 C          13.8327    1.0258    4.0622 C.ar    1  LIG1       -0.0576
     31 H          14.6371    0.7919    4.4646 H       1  LIG1        0.0619
     32 C           4.4785    1.0959    1.1811 C.ar    1  LIG1       -0.0538
     33 H           4.4970    0.3610    1.7518 H       1  LIG1        0.0624
     34 C          -0.3917    2.7900   -0.8795 C.3     1  LIG1        0.0820
     35 H          -1.0563    2.1622   -0.5866 H       1  LIG1        0.0661
     36 H          -0.3634    2.8007   -1.8388 H       1  LIG1        0.0661
     37 H          -0.6136    3.6654   -0.5549 H       1  LIG1        0.0661
     38 H          11.4632    4.0177    2.3463 H       1  LIG1        0.2922
@<TRIPOS>BOND
     1    36    34    1
     2    15    14    2
     3    21    20    1
     4    34    35    1
     5    34    37    1
     6    34     7    1
     7    14     7    1
     8    14     4    1
     9    20     4   ar
    10    20    26   ar
    11    27    26    1
    12     4    28   ar
    13    26     8   ar
    14    28    29    1
    15    28    32   ar
    16     8    32   ar
    17     8    18    1
    18    17    16    1
    19    32    33    1
    20    18    16    2
    21    18    19    1
    22    16     6    1
    23     6     1   ar
    24     6    12   ar
    25     1     3   ar
    26    38     2    1
    27    13    12    1
    28    12     9   ar
    29     2    11    1
    30     3    11   ar
    31     3     5   ar
    32    11    24   ar
    33     9     5   ar
    34     9    10    1
    35     5    22   ar
    36    24    25    1
    37    24    30   ar
    38    22    30   ar
    39    22    23    1
    40    30    31    1
