@<TRIPOS>MOLECULE
<i>N</i>,<i>N</i>'-Bis[2-((benzyl){[5-(dimethylamino)naphthalen-1-yl]sulfonyl}amino)ethyl]naphthalene-1,8:4,5-tetracarboximide 1,2-dichlorobenzene trisolvate
 158 164 0 0 0
SMALL
GASTEIGER

@<TRIPOS>ATOM
      1 S          -1.2181   10.9814    4.0300 S.O2    1  LIG1        0.0618
      2 CL          4.8179    5.7681    8.8977 Cl      2  LIG2       -0.0820
      3 CL          4.5252    8.8323    8.2187 Cl      2  LIG2       -0.0820
      4 O          -5.1736   13.3373    3.9743 O.2     1  LIG1       -0.2695
      5 O          -1.0295   11.7424    2.8228 O.2     1  LIG1       -0.1528
      6 O          -4.7972    9.4954    6.3811 O.2     1  LIG1       -0.2695
      7 O          -0.1787   10.0768    4.4347 O.2     1  LIG1       -0.1528
      8 N          -4.9946   11.4214    5.1732 N.am    1  LIG1       -0.2328
      9 N          -2.6039   10.1282    3.9327 N.3     1  LIG1       -0.1708
     10 C          -5.0905   12.8093    5.0689 C.2     1  LIG1        0.2545
     11 C          -1.4665   12.1714    5.3286 C.ar    1  LIG1        0.1132
     12 C          -1.6162   13.4839    4.9454 C.ar    1  LIG1       -0.0347
     13 H          -1.6232   13.7100    4.0230 H       1  LIG1        0.0637
     14 N          -1.1940   13.6055    9.9846 N.pl3   1  LIG1       -0.3355
     15 C          -5.0138   12.9083    7.5649 C.2     1  LIG1        0.0083
     16 C          -4.8060   10.8633    8.8445 C.2     1  LIG1       -0.0670
     17 H          -4.7220    9.9177    8.8770 H       1  LIG1        0.0583
     18 C          -1.6560   14.1771    7.2449 C.ar    1  LIG1       -0.0521
     19 H          -1.7255   14.8678    7.8924 H       1  LIG1        0.0624
     20 C          -4.8999   11.5027    7.6294 C.2     1  LIG1        0.0422
     21 C          -3.6086    6.5640    1.0766 C.ar    1  LIG1       -0.0615
     22 H          -4.3914    6.1543    0.7265 H       1  LIG1        0.0618
     23 C          -4.8854   10.7047    6.3783 C.2     1  LIG1        0.2534
     24 C          -4.8346   11.6080   10.0376 C.3     1  LIG1       -0.0082
     25 H          -4.7861   11.1625   10.8754 H       1  LIG1        0.0355
     26 C          -5.0328   10.6639    3.9132 C.3     1  LIG1        0.0374
     27 H          -5.7486   11.0300    3.3356 H       1  LIG1        0.0483
     28 H          -5.2546    9.7192    4.1095 H       1  LIG1        0.0483
     29 C          -1.4467   12.8412    7.6756 C.ar    1  LIG1        0.0050
     30 C          -1.4317   11.7898    6.7089 C.ar    1  LIG1        0.0102
     31 C          -2.5396    7.8974    2.7870 C.ar    1  LIG1       -0.0317
     32 C          -5.1041   13.5842    6.3311 C.2     1  LIG1        0.0585
     33 C          -1.7588   14.4929    5.9185 C.ar    1  LIG1       -0.0593
     34 H          -1.9251   15.3891    5.6540 H       1  LIG1        0.0618
     35 C          -1.2895   12.5261    9.0686 C.ar    1  LIG1        0.0371
     36 C          -3.6733    7.2715    2.2766 C.ar    1  LIG1       -0.0573
     37 H          -4.4957    7.3270    2.7478 H       1  LIG1        0.0621
     38 C          -1.4025   10.4442    7.1597 C.ar    1  LIG1       -0.0520
     39 H          -1.4129    9.7325    6.5308 H       1  LIG1        0.0624
     40 C          -3.7083   10.7221    3.1653 C.3     1  LIG1        0.0371
     41 H          -3.8004   10.2411    2.3054 H       1  LIG1        0.0460
     42 H          -3.4912   11.6664    2.9633 H       1  LIG1        0.0460
     43 C          -1.2709    7.0684    0.9039 C.ar    1  LIG1       -0.0615
     44 H          -0.4438    6.9906    0.4441 H       1  LIG1        0.0618
     45 C          -1.3599   10.1752    8.4977 C.ar    1  LIG1       -0.0594
     46 H          -1.3859    9.2710    8.7904 H       1  LIG1        0.0618
     47 C           1.1318    8.0169   10.1456 C.ar    2  LIG2       -0.0603
     48 H           0.3445    8.4809   10.4019 H       2  LIG2        0.0618
     49 C          -1.2775   11.2080    9.4572 C.ar    1  LIG1       -0.0401
     50 H          -1.2131   10.9903   10.3790 H       1  LIG1        0.0636
     51 C           2.1213    8.6797    9.4438 C.ar    2  LIG2       -0.0420
     52 H           2.0163    9.5965    9.2198 H       2  LIG2        0.0633
     53 C           3.2720    7.9934    9.0681 C.ar    2  LIG2        0.0592
     54 C          -2.6102    8.6538    4.0959 C.3     1  LIG1        0.0456
     55 H          -3.4363    8.3887    4.5748 H       1  LIG1        0.0493
     56 H          -1.8384    8.3914    4.6581 H       1  LIG1        0.0493
     57 C           3.4111    6.6527    9.3831 C.ar    2  LIG2        0.0592
     58 C          -2.4098    6.4554    0.3936 C.ar    1  LIG1       -0.0617
     59 H          -2.3656    5.9644   -0.4180 H       1  LIG1        0.0618
     60 C          -1.4519   13.2765   11.3796 C.3     1  LIG1        0.0004
     61 H          -2.2742   12.7476   11.4436 H       1  LIG1        0.0428
     62 H          -1.5542   14.1038   11.8958 H       1  LIG1        0.0428
     63 H          -0.7010   12.7586   11.7374 H       1  LIG1        0.0428
     64 C          -1.3425    7.7945    2.0818 C.ar    1  LIG1       -0.0573
     65 H          -0.5653    8.2279    2.4131 H       1  LIG1        0.0621
     66 C           2.4180    5.9985   10.0927 C.ar    2  LIG2       -0.0420
     67 H           2.5182    5.0809   10.3154 H       2  LIG2        0.0633
     68 C           0.0749   14.3530    9.8794 C.3     1  LIG1        0.0004
     69 H           0.8028   13.8159   10.2582 H       1  LIG1        0.0428
     70 H          -0.0006   15.1963   10.3741 H       1  LIG1        0.0428
     71 H           0.2646   14.5426    8.9374 H       1  LIG1        0.0428
     72 C           1.2803    6.6851   10.4759 C.ar    2  LIG2       -0.0603
     73 H           0.5998    6.2401   10.9668 H       2  LIG2        0.0618
     74 S          -2.4140    7.5917   12.1579 S.O2    3  LIG3        0.0618
     75 CL          5.9741   12.1755    0.5187 Cl      4  LIG4       -0.0820
     76 CL          5.8595    9.0467    0.9937 Cl      4  LIG4       -0.0820
     77 O          -6.4839    9.7659   12.1646 O.2     3  LIG3       -0.2695
     78 O          -2.3204    8.3915   10.9652 O.2     3  LIG3       -0.1528
     79 O          -5.9083    5.9494   14.5703 O.2     3  LIG3       -0.2695
     80 O          -1.3202    6.7272   12.4962 O.2     3  LIG3       -0.1528
     81 N          -6.1757    7.8640   13.3602 N.am    3  LIG3       -0.2328
     82 N          -3.7675    6.6814   12.0942 N.3     3  LIG3       -0.1708
     83 C          -5.5439    8.1130   18.1836 C.3     3  LIG3       -0.0082
     84 H          -5.3852    7.6796   19.0144 H       3  LIG3        0.0355
     85 C          -6.3262    9.2510   13.2558 C.2     3  LIG3        0.2545
     86 C          -2.4900    8.3438   14.8667 C.ar    3  LIG3        0.0102
     87 C          -5.8653    7.9758   15.7958 C.2     3  LIG3        0.0422
     88 C          -3.5546    4.4500   10.9537 C.ar    3  LIG3       -0.0317
     89 C          -2.7962   10.7126   15.4584 C.ar    3  LIG3       -0.0521
     90 H          -2.8525   11.3898   16.1212 H       3  LIG3        0.0624
     91 C          -2.6482    8.7413   13.4985 C.ar    3  LIG3        0.1132
     92 N          -2.0880   10.1268   18.1456 N.pl3   3  LIG3       -0.3355
     93 C          -2.8920   10.0491   13.1489 C.ar    3  LIG3       -0.0347
     94 H          -2.9760   10.2868   12.2338 H       3  LIG3        0.0637
     95 C          -6.0401    9.3774   15.7313 C.2     3  LIG3        0.0083
     96 C           4.5319   11.4193    1.1146 C.ar    4  LIG4        0.0592
     97 C           3.4211   12.2034    1.3929 C.ar    4  LIG4       -0.0420
     98 H           3.4422   13.1384    1.2245 H       4  LIG4        0.0633
     99 C          -5.6081    7.3566   17.0019 C.2     3  LIG3       -0.0670
    100 H          -5.4740    6.4177   17.0323 H       3  LIG3        0.0583
    101 C          -5.9761    7.1620   14.5607 C.2     3  LIG3        0.2534
    102 C          -6.2815   10.0330   14.5088 C.2     3  LIG3        0.0585
    103 C          -4.9057    7.2188   11.3360 C.3     3  LIG3        0.0371
    104 H          -4.9871    6.7276   10.4803 H       3  LIG3        0.0460
    105 H          -4.7352    8.1703   11.1252 H       3  LIG3        0.0460
    106 C          -4.5586    3.2490    9.1078 C.ar    3  LIG3       -0.0615
    107 H          -5.3346    2.9285    8.6631 H       3  LIG3        0.0618
    108 C          -3.6880    5.2071   12.2553 C.3     3  LIG3        0.0456
    109 H          -4.5022    4.8931   12.7236 H       3  LIG3        0.0493
    110 H          -2.9106    4.9918   12.8297 H       3  LIG3        0.0493
    111 C          -2.2010    6.7126   16.6202 C.ar    3  LIG3       -0.0594
    112 H          -2.1654    5.8058   16.9000 H       3  LIG3        0.0618
    113 C          -6.2197    7.1045   12.1050 C.3     3  LIG3        0.0374
    114 H          -6.9590    7.4442   11.5415 H       3  LIG3        0.0483
    115 H          -6.4011    6.1518   12.3040 H       3  LIG3        0.0483
    116 C          -4.6838    3.9566   10.3020 C.ar    3  LIG3       -0.0573
    117 H          -5.5457    4.1038   10.6746 H       3  LIG3        0.0621
    118 C          -2.1954    9.0604   17.2187 C.ar    3  LIG3        0.0371
    119 C          -2.3607    6.9968   15.2920 C.ar    3  LIG3       -0.0520
    120 H          -2.3857    6.2929   14.6551 H       3  LIG3        0.0624
    121 C           4.4911   10.0470    1.3357 C.ar    4  LIG4        0.0592
    122 C          -3.0173   11.0375   14.1486 C.ar    3  LIG3       -0.0593
    123 H          -3.2548   11.9270   13.9122 H       3  LIG3        0.0618
    124 C           2.2816   11.6141    1.9173 C.ar    4  LIG4       -0.0603
    125 H           1.5232   12.1486    2.1192 H       4  LIG4        0.0618
    126 C          -2.3020    4.2095   10.3980 C.ar    3  LIG3       -0.0573
    127 H          -1.5249    4.5428   10.8297 H       3  LIG3        0.0621
    128 C          -2.4835    9.3826   15.8482 C.ar    3  LIG3        0.0050
    129 C          -2.2108    9.7592   19.5492 C.3     3  LIG3        0.0004
    130 H          -2.9992    9.1897   19.6707 H       3  LIG3        0.0428
    131 H          -2.3059   10.5693   20.0919 H       3  LIG3        0.0428
    132 H          -1.4091    9.2702   19.8307 H       3  LIG3        0.0428
    133 C          -2.0883    7.7359   17.5841 C.ar    3  LIG3       -0.0401
    134 H          -1.9365    7.5088   18.4952 H       3  LIG3        0.0636
    135 C           2.2428   10.2501    2.1486 C.ar    4  LIG4       -0.0603
    136 H           1.4599    9.8524    2.5127 H       4  LIG4        0.0618
    137 C          -2.1758    3.4882    9.2192 C.ar    3  LIG3       -0.0615
    138 H          -1.3145    3.3187    8.8574 H       3  LIG3        0.0618
    139 C          -3.3057    3.0127    8.5690 C.ar    3  LIG3       -0.0617
    140 H          -3.2197    2.5265    7.7569 H       3  LIG3        0.0618
    141 C           3.3428    9.4647    1.8515 C.ar    4  LIG4       -0.0420
    142 H           3.3117    8.5274    2.0001 H       4  LIG4        0.0633
    143 C          -0.8872   10.9593   17.9549 C.3     3  LIG3        0.0004
    144 H          -0.0978   10.4691   18.2650 H       3  LIG3        0.0428
    145 H          -0.9792   11.7879   18.4690 H       3  LIG3        0.0428
    146 H          -0.7869   11.1748   17.0045 H       3  LIG3        0.0428
    147 CL          0.5703    2.4026   11.3066 Cl      5  LIG5       -0.0820
    148 CL          0.8338    4.5808   13.5946 Cl      5  LIG5       -0.0820
    149 C           2.2292    3.7876   12.9553 C.ar    5  LIG5        0.0592
    150 C           3.2423    2.1952   11.4592 C.ar    5  LIG5       -0.0420
    151 H           3.1606    1.5412   10.7742 H       5  LIG5        0.0633
    152 C           2.1123    2.8281   11.9585 C.ar    5  LIG5        0.0592
    153 C           4.6075    3.5036   12.9651 C.ar    5  LIG5       -0.0603
    154 H           5.4630    3.7347   13.3081 H       5  LIG5        0.0618
    155 C           3.4896    4.1202   13.4376 C.ar    5  LIG5       -0.0420
    156 H           3.5721    4.7877   14.1081 H       5  LIG5        0.0633
    157 C           4.4888    2.5204   11.9631 C.ar    5  LIG5       -0.0603
    158 H           5.2642    2.0806   11.6346 H       5  LIG5        0.0618
@<TRIPOS>BOND
     1    59    58    1
     2    58    43   ar
     3    58    21   ar
     4    44    43    1
     5    75    96    1
     6    22    21    1
     7    43    64   ar
     8    76   121    1
     9    21    36   ar
    10    96   121   ar
    11    96    97   ar
    12    98    97    1
    13   121   141   ar
    14    97   124   ar
    15   141   142    1
    16   141   135   ar
    17   124   125    1
    18   124   135   ar
    19    64    65    1
    20    64    31   ar
    21   135   136    1
    22    36    37    1
    23    36    31   ar
    24    41    40    1
    25    31    54    1
    26     5     1    2
    27    42    40    1
    28    40    26    1
    29    40     9    1
    30    27    26    1
    31    26    28    1
    32    26     8    1
    33     9     1    1
    34     9    54    1
    35     4    10    2
    36    13    12    1
    37     1     7    2
    38     1    11    1
    39    54    55    1
    40    54    56    1
    41    12    11   ar
    42    12    33   ar
    43    10     8   am
    44    10    32    1
    45     8    23   am
    46    11    30   ar
    47    34    33    1
    48    33    18   ar
    49    32    15    2
    50    23     6    2
    51    23    20    1
    52    39    38    1
    53    30    38   ar
    54    30    29   ar
    55    38    45   ar
    56    18    29   ar
    57    18    19    1
    58    15    20    1
    59    20    16    2
    60    29    35   ar
    61   140   139    1
    62     3    53    1
    63    45    46    1
    64    45    49   ar
    65   139   106   ar
    66   139   137   ar
    67   107   106    1
    68    16    17    1
    69    16    24    1
    70   138   137    1
    71     2    57    1
    72    71    68    1
    73    53    57   ar
    74    53    51   ar
    75    35    49   ar
    76    35    14    1
    77   106   116   ar
    78   137   126   ar
    79    52    51    1
    80    57    66   ar
    81    51    47   ar
    82    49    50    1
    83    68    14    1
    84    68    69    1
    85    68    70    1
    86    14    60    1
    87    24    25    1
    88    66    67    1
    89    66    72   ar
    90    47    48    1
    91    47    72   ar
    92   116   117    1
    93   116    88   ar
    94   126   127    1
    95   126    88   ar
    96    72    73    1
    97   104   103    1
    98   151   150    1
    99    88   108    1
   100    78    74    2
   101   105   103    1
   102   147   152    1
   103   103    82    1
   104   103   113    1
   105    60    61    1
   106    60    63    1
   107    60    62    1
   108   150   152   ar
   109   150   157   ar
   110   114   113    1
   111   158   157    1
   112   152   149   ar
   113   157   153   ar
   114    82    74    1
   115    82   108    1
   116   113   115    1
   117   113    81    1
   118    74    80    2
   119    74    91    1
   120    77    85    2
   121    94    93    1
   122   108   109    1
   123   108   110    1
   124   149   155   ar
   125   149   148    1
   126   153   154    1
   127   153   155   ar
   128    93    91   ar
   129    93   122   ar
   130    85    81   am
   131    85   102    1
   132    81   101   am
   133   155   156    1
   134    91    86   ar
   135   123   122    1
   136   122    89   ar
   137   102    95    2
   138   101    79    2
   139   101    87    1
   140   120   119    1
   141    86   119   ar
   142    86   128   ar
   143   119   111   ar
   144    89   128   ar
   145    89    90    1
   146    95    87    1
   147    87    99    2
   148   128   118   ar
   149   111   112    1
   150   111   133   ar
   151    99   100    1
   152    99    83    1
   153   146   143    1
   154   118   133   ar
   155   118    92    1
   156   133   134    1
   157   143    92    1
   158   143   144    1
   159   143   145    1
   160    92   129    1
   161    83    84    1
   162   129   130    1
   163   129   132    1
   164   129   131    1
