@<TRIPOS>MOLECULE
Morpholinium hydrogen oxalate
 23 22 0 0 0
SMALL
GASTEIGER

@<TRIPOS>ATOM
      1 O          -1.4857    3.5838    5.5393 O.co2   1  LIG1       -0.2332
      2 O           1.8448    2.6969    4.9436 O.3     1  LIG1       -0.4725
      3 H           2.5853    3.0028    5.1973 H       1  LIG1        0.2956
      4 O           2.1519    4.5070    1.9816 O.3     2  LIG2       -0.3693
      5 O           1.0319    4.4438    6.0775 O.2     1  LIG1       -0.2376
      6 O          -0.6170    2.1368    4.0725 O.co2   1  LIG1       -0.2332
      7 N           2.0837    7.0852    3.1865 N.4     2  LIG2        0.2302
      8 H           1.8511    7.6161    3.8874 H       2  LIG2        0.2015
      9 H           2.4822    7.6075    2.5564 H       2  LIG2        0.2015
     10 C          -0.5336    2.9984    4.9588 C.2     1  LIG1        0.4619
     11 C           0.8775    3.4553    5.4038 C.2     1  LIG1        0.4191
     12 C           3.3398    5.0964    2.5058 C.3     2  LIG2        0.0877
     13 H           3.8042    5.5918    1.7854 H       2  LIG2        0.0613
     14 H           3.9468    4.3818    2.8231 H       2  LIG2        0.0613
     15 C           3.0410    6.0405    3.6474 C.3     2  LIG2       -0.0096
     16 H           2.6494    5.5379    4.4052 H       2  LIG2        0.0836
     17 H           3.8787    6.4674    3.9585 H       2  LIG2        0.0836
     18 C           0.8642    6.4549    2.6126 C.3     2  LIG2       -0.0096
     19 H           0.2577    7.1532    2.2609 H       2  LIG2        0.0836
     20 H           0.3835    5.9506    3.3153 H       2  LIG2        0.0836
     21 C           1.2742    5.5221    1.4993 C.3     2  LIG2        0.0877
     22 H           0.4675    5.1019    1.1077 H       2  LIG2        0.0613
     23 H           1.7274    6.0387    0.7866 H       2  LIG2        0.0613
@<TRIPOS>BOND
     1    23    21    1
     2    22    21    1
     3    21     4    1
     4    21    18    1
     5    13    12    1
     6     4    12    1
     7    19    18    1
     8    12    14    1
     9    12    15    1
    10     9     7    1
    11    18     7    1
    12    18    20    1
    13     7    15    1
    14     7     8    1
    15    15    17    1
    16    15    16    1
    17     6    10   ar
    18     2     3    1
    19     2    11    1
    20    10    11    1
    21    10     1   ar
    22    11     5    2
