@<TRIPOS>MOLECULE
<i>trans</i>-3-Benzoyl-2,2-diphenyl-4-(trifluoromethyl)tetrahydrothiophene
 48 51 0 0 0
SMALL
GASTEIGER

@<TRIPOS>ATOM
      1 S           1.6896   11.6239    9.8658 S.3     1  LIG1       -0.1432
      2 F           1.6634    9.6945   13.8751 F       1  LIG1       -0.1704
      3 F          -0.3917   10.3194   13.7500 F       1  LIG1       -0.1704
      4 F           1.0439   11.5450   14.7732 F       1  LIG1       -0.1704
      5 O           1.5703   14.2580   12.6556 O.2     1  LIG1       -0.2917
      6 C           0.8700   10.7695   13.6903 C.3     1  LIG1        0.3943
      7 C           3.1919   11.8703   10.9286 C.3     1  LIG1        0.0766
      8 C           2.5768   12.1081   12.3754 C.3     1  LIG1        0.0565
      9 H           3.1387   11.6114   13.0370 H       1  LIG1        0.0407
     10 C           1.1519   11.5152   12.4161 C.3     1  LIG1        0.0750
     11 H           0.5087   12.2797   12.3691 H       1  LIG1        0.0403
     12 C           0.9261   10.6499   11.1710 C.3     1  LIG1        0.0066
     13 H          -0.0396   10.5148   10.9989 H       1  LIG1        0.0382
     14 H           1.3655    9.7677   11.2635 H       1  LIG1        0.0382
     15 C           2.5793   13.5897   12.7669 C.2     1  LIG1        0.1687
     16 C           3.8582   14.1951   13.2482 C.ar    1  LIG1        0.0178
     17 C           4.0761   15.5496   12.9746 C.ar    1  LIG1       -0.0513
     18 H           3.4013   16.0603   12.5425 H       1  LIG1        0.0624
     19 C           5.2779   16.1505   13.3333 C.ar    1  LIG1       -0.0611
     20 H           5.4364   17.0626   13.1202 H       1  LIG1        0.0618
     21 C           6.2422   15.4168   14.0018 C.ar    1  LIG1       -0.0617
     22 H           7.0620   15.8290   14.2483 H       1  LIG1        0.0618
     23 C           6.0203   14.0861   14.3133 C.ar    1  LIG1       -0.0611
     24 H           6.6780   13.5929   14.7897 H       1  LIG1        0.0618
     25 C           4.8361   13.4741   13.9285 C.ar    1  LIG1       -0.0513
     26 H           4.6917   12.5572   14.1303 H       1  LIG1        0.0624
     27 C           3.9921   13.0689   10.4027 C.ar    1  LIG1       -0.0264
     28 C           4.0278   10.5838   10.8345 C.ar    1  LIG1       -0.0264
     29 C           3.3732   14.1701    9.8121 C.ar    1  LIG1       -0.0569
     30 H           2.4301   14.1721    9.6972 H       1  LIG1        0.0621
     31 C           4.1156   15.2616    9.3907 C.ar    1  LIG1       -0.0614
     32 H           3.6761   16.0027    8.9903 H       1  LIG1        0.0618
     33 C           5.4865   15.2836    9.5462 C.ar    1  LIG1       -0.0617
     34 H           5.9915   16.0305    9.2473 H       1  LIG1        0.0618
     35 C           6.1193   14.2029   10.1438 C.ar    1  LIG1       -0.0614
     36 H           7.0612   14.2137   10.2672 H       1  LIG1        0.0618
     37 C           5.3816   13.1116   10.5596 C.ar    1  LIG1       -0.0569
     38 H           5.8273   12.3745   10.9603 H       1  LIG1        0.0621
     39 C           4.4099    9.7974   11.9123 C.ar    1  LIG1       -0.0569
     40 H           4.1425   10.0442   12.7899 H       1  LIG1        0.0621
     41 C           5.1808    8.6504   11.7261 C.ar    1  LIG1       -0.0614
     42 H           5.4292    8.1266   12.4788 H       1  LIG1        0.0618
     43 C           5.5880    8.2650   10.4678 C.ar    1  LIG1       -0.0617
     44 H           6.1069    7.4789   10.3442 H       1  LIG1        0.0618
     45 C           5.2219    9.0523    9.3841 C.ar    1  LIG1       -0.0614
     46 H           5.4993    8.8052    8.5098 H       1  LIG1        0.0618
     47 C           4.4589   10.1899    9.5610 C.ar    1  LIG1       -0.0569
     48 H           4.2227   10.7150    8.8055 H       1  LIG1        0.0621
@<TRIPOS>BOND
     1    46    45    1
     2    48    47    1
     3    32    31    1
     4    34    33    1
     5    45    47   ar
     6    45    43   ar
     7    31    33   ar
     8    31    29   ar
     9    33    35   ar
    10    47    28   ar
    11    30    29    1
    12    29    27   ar
    13     1     7    1
    14     1    12    1
    15    35    36    1
    16    35    37   ar
    17    44    43    1
    18    27    37   ar
    19    27     7    1
    20    43    41   ar
    21    37    38    1
    22    28     7    1
    23    28    39   ar
    24     7     8    1
    25    13    12    1
    26    12    14    1
    27    12    10    1
    28    41    39   ar
    29    41    42    1
    30    39    40    1
    31    11    10    1
    32     8    10    1
    33     8    15    1
    34     8     9    1
    35    10     6    1
    36    18    17    1
    37     5    15    2
    38    15    16    1
    39    17    16   ar
    40    17    19   ar
    41    20    19    1
    42    16    25   ar
    43    19    21   ar
    44     6     3    1
    45     6     2    1
    46     6     4    1
    47    25    26    1
    48    25    23   ar
    49    21    22    1
    50    21    23   ar
    51    23    24    1
