@<TRIPOS>MOLECULE
3-(2,4,5-Trimethyl-3,6-dioxocyclohexa-1,4-dienyl)propyl methacrylate
 40 40 0 0 0
SMALL
GASTEIGER

@<TRIPOS>ATOM
      1 C           0.5408    1.9569    3.9613 C.2     1  LIG1        0.1857
      2 O           0.1631    1.0892    3.1921 O.2     1  LIG1       -0.2873
      3 C           1.4505    1.6021    5.0876 C.2     1  LIG1        0.0030
      4 C           1.7746    0.1416    5.1956 C.3     1  LIG1       -0.0357
      5 H           2.4808    0.0118    5.8625 H       1  LIG1        0.0279
      6 H           2.0822   -0.1895    4.3257 H       1  LIG1        0.0279
      7 H           0.9731   -0.3517    5.4677 H       1  LIG1        0.0279
      8 C           1.8916    2.5665    5.9146 C.2     1  LIG1        0.0030
      9 C           2.7771    2.3543    7.1128 C.3     1  LIG1       -0.0357
     10 H           2.2530    2.4751    7.9323 H       1  LIG1        0.0279
     11 H           3.5111    3.0044    7.0948 H       1  LIG1        0.0279
     12 H           3.1444    1.4460    7.0919 H       1  LIG1        0.0279
     13 C           1.4642    3.9747    5.7003 C.2     1  LIG1        0.1855
     14 O           1.8663    4.8531    6.4515 O.2     1  LIG1       -0.2873
     15 C           0.5497    4.3307    4.5811 C.2     1  LIG1        0.0033
     16 C           0.2190    5.7898    4.4568 C.3     1  LIG1       -0.0357
     17 H          -0.5087    5.9059    3.8096 H       1  LIG1        0.0279
     18 H           1.0105    6.2789    4.1480 H       1  LIG1        0.0279
     19 H          -0.0605    6.1368    5.3295 H       1  LIG1        0.0279
     20 C           0.0938    3.3686    3.7642 C.2     1  LIG1        0.0062
     21 C          -0.7826    3.6262    2.5613 C.3     1  LIG1       -0.0206
     22 H          -1.4059    4.3699    2.7606 H       1  LIG1        0.0315
     23 H          -1.3201    2.8185    2.3659 H       1  LIG1        0.0315
     24 C           0.0652    3.9851    1.3372 C.3     1  LIG1       -0.0144
     25 H           0.6899    4.7121    1.5848 H       1  LIG1        0.0301
     26 H           0.6068    3.1963    1.0828 H       1  LIG1        0.0301
     27 C          -0.7460    4.4245    0.1432 C.3     1  LIG1        0.0931
     28 H          -1.3730    5.1432    0.4089 H       1  LIG1        0.0697
     29 H          -0.1456    4.7784   -0.5612 H       1  LIG1        0.0697
     30 O          -1.4849    3.2874   -0.3646 O.3     1  LIG1       -0.4614
     31 C          -2.2022    3.5320   -1.4728 C.2     1  LIG1        0.3343
     32 O          -2.2660    4.6283   -1.9866 O.2     1  LIG1       -0.2453
     33 C          -2.9123    2.3194   -1.9683 C.2     1  LIG1        0.0264
     34 C          -2.7540    1.0919   -1.2813 C.2     1  LIG1       -0.0890
     35 H          -3.2039    0.3138   -1.5904 H       1  LIG1        0.0540
     36 H          -2.1981    1.0457   -0.5132 H       1  LIG1        0.0540
     37 C          -3.7082    2.4893   -3.1095 C.3     1  LIG1       -0.0335
     38 H          -4.2100    1.6662   -3.2823 H       1  LIG1        0.0280
     39 H          -3.1364    2.6918   -3.8801 H       1  LIG1        0.0280
     40 H          -4.3340    3.2294   -2.9637 H       1  LIG1        0.0280
@<TRIPOS>BOND
     1    39    37    1
     2    38    37    1
     3    37    40    1
     4    37    33    1
     5    32    31    2
     6    33    31    1
     7    33    34    2
     8    35    34    1
     9    31    30    1
    10    34    36    1
    11    29    27    1
    12    30    27    1
    13    27    28    1
    14    27    24    1
    15    26    24    1
    16    24    25    1
    17    24    21    1
    18    23    21    1
    19    21    22    1
    20    21    20    1
    21     2     1    2
    22    20     1    1
    23    20    15    2
    24    17    16    1
    25     1     3    1
    26    18    16    1
    27     6     4    1
    28    16    15    1
    29    16    19    1
    30    15    13    1
    31     3     4    1
    32     3     8    2
    33     4     7    1
    34     4     5    1
    35    13     8    1
    36    13    14    2
    37     8     9    1
    38    12     9    1
    39    11     9    1
    40     9    10    1
