@<TRIPOS>MOLECULE
2-[(4-Bromophenyl)sulfanyl]-2-methoxy-1-phenylethan-1-one
 32 33 0 0 0
SMALL
GASTEIGER

@<TRIPOS>ATOM
      1 C           6.8822    6.3992    2.6470 C.ar    1  LIG1        0.0179
      2 C           5.9300    5.7977    3.4194 C.ar    1  LIG1       -0.0467
      3 H           5.1386    5.4898    3.0401 H       1  LIG1        0.0629
      4 C           6.1631    5.6526    4.7897 C.ar    1  LIG1       -0.0472
      5 H           5.5271    5.2372    5.3256 H       1  LIG1        0.0629
      6 C           7.3303    6.1217    5.3512 C.ar    1  LIG1        0.0108
      7 C           8.2789    6.7311    4.5434 C.ar    1  LIG1       -0.0472
      8 H           9.0703    7.0511    4.9148 H       1  LIG1        0.0629
      9 C           8.0512    6.8651    3.1770 C.ar    1  LIG1       -0.0467
     10 H           8.6872    7.2676    2.6313 H       1  LIG1        0.0629
     11 C          10.8410    5.5499    7.3274 C.3     1  LIG1        0.0385
     12 H          10.9151    5.2228    8.2268 H       1  LIG1        0.0524
     13 H          10.5194    6.4545    7.3422 H       1  LIG1        0.0524
     14 H          11.7028    5.5243    6.9048 H       1  LIG1        0.0524
     15 C           8.7198    4.5524    7.2151 C.3     1  LIG1        0.1704
     16 H           8.8715    4.3439    8.1608 H       1  LIG1        0.0800
     17 C           8.0332    3.3776    6.5620 C.2     1  LIG1        0.2021
     18 C           6.9238    2.6687    7.2456 C.ar    1  LIG1        0.0209
     19 C           6.3871    1.5445    6.6319 C.ar    1  LIG1       -0.0511
     20 H           6.7214    1.2670    5.8093 H       1  LIG1        0.0625
     21 C           5.3627    0.8300    7.2269 C.ar    1  LIG1       -0.0611
     22 H           5.0103    0.0818    6.8013 H       1  LIG1        0.0618
     23 C           4.8586    1.2293    8.4642 C.ar    1  LIG1       -0.0617
     24 H           4.1702    0.7522    8.8711 H       1  LIG1        0.0618
     25 C           5.3952    2.3432    9.0730 C.ar    1  LIG1       -0.0611
     26 H           5.0591    2.6246    9.8937 H       1  LIG1        0.0618
     27 C           6.4161    3.0400    8.4859 C.ar    1  LIG1       -0.0511
     28 H           6.7774    3.7753    8.9253 H       1  LIG1        0.0625
     29 O           9.9376    4.7392    6.6033 O.3     1  LIG1       -0.3610
     30 O           8.3710    3.0256    5.4428 O.2     1  LIG1       -0.2883
     31 S           7.5872    6.0142    7.1031 S.3     1  LIG1       -0.0860
     32 BR          6.5716    6.6085    0.7784 Br      1  LIG1       -0.0503
@<TRIPOS>BOND
     1    32     1    1
     2    10     9    1
     3     1     9   ar
     4     1     2   ar
     5     3     2    1
     6     9     7   ar
     7     2     4   ar
     8     7     8    1
     9     7     6   ar
    10     4     5    1
    11     4     6   ar
    12     6    31    1
    13    30    17    2
    14    20    19    1
    15    17    15    1
    16    17    18    1
    17    29    15    1
    18    29    11    1
    19    19    21   ar
    20    19    18   ar
    21    22    21    1
    22    14    11    1
    23    31    15    1
    24    15    16    1
    25    21    23   ar
    26    18    27   ar
    27    11    13    1
    28    11    12    1
    29    23    24    1
    30    23    25   ar
    31    27    28    1
    32    27    25   ar
    33    25    26    1
