@<TRIPOS>MOLECULE
3-Methoxybenzoic acid
 19 19 0 0 0
SMALL
GASTEIGER

@<TRIPOS>ATOM
      1 O           0.6034   15.0811   10.6026 O.2     1  LIG1       -0.2451
      2 O          -0.3601   13.8394   12.1987 O.3     1  LIG1       -0.4771
      3 H          -0.5415   14.7461   12.6003 H       1  LIG1        0.2954
      4 O           0.5011    9.1550   11.0365 O.3     1  LIG1       -0.4951
      5 C           0.6765   12.7101   10.4009 C.ar    1  LIG1        0.0623
      6 C           0.4272   11.4864   11.0104 C.ar    1  LIG1       -0.0060
      7 H           0.0076   11.4539   11.8615 H       1  LIG1        0.0662
      8 C           0.7957   10.3085   10.3653 C.ar    1  LIG1        0.1209
      9 C           1.4105   10.3540    9.1133 C.ar    1  LIG1       -0.0199
     10 H           1.6667    9.5504    8.6752 H       1  LIG1        0.0654
     11 C           1.6449   11.5867    8.5134 C.ar    1  LIG1       -0.0575
     12 H           2.0585   11.6193    7.6586 H       1  LIG1        0.0619
     13 C           1.2858   12.7663    9.1397 C.ar    1  LIG1       -0.0475
     14 H           1.4496   13.6024    8.7207 H       1  LIG1        0.0626
     15 C           0.3011   13.9758   11.0749 C.2     1  LIG1        0.3369
     16 C           0.9318    7.9296   10.4381 C.3     1  LIG1        0.0788
     17 H           0.6765    7.1788   11.0137 H       1  LIG1        0.0660
     18 H           1.9056    7.9433   10.3312 H       1  LIG1        0.0660
     19 H           0.5078    7.8279    9.5601 H       1  LIG1        0.0660
@<TRIPOS>BOND
     1    12    11    1
     2    11     9   ar
     3    11    13   ar
     4    10     9    1
     5    14    13    1
     6     9     8   ar
     7    13     5   ar
     8    19    16    1
     9    18    16    1
    10     8     6   ar
    11     8     4    1
    12     5     6   ar
    13     5    15    1
    14    16    17    1
    15    16     4    1
    16     1    15    2
    17     6     7    1
    18    15     2    1
    19     2     3    1
