@<TRIPOS>MOLECULE
2-Trichloromethyl-3-phenyl-1,3-thiazolidin-4-one
 24 25 0 0 0
SMALL
GASTEIGER

@<TRIPOS>ATOM
      1 CL          0.0176   -0.7310    7.9987 Cl      1  LIG1       -0.0804
      2 CL          2.8035   -0.8277    7.2610 Cl      1  LIG1       -0.0804
      3 CL          1.9150    1.0054    9.2836 Cl      1  LIG1       -0.0804
      4 S           0.9869    0.5091    5.0348 S.3     1  LIG1       -0.1244
      5 O          -1.9954    2.6180    6.1717 O.2     1  LIG1       -0.2743
      6 N           0.1259    2.1540    6.8865 N.am    1  LIG1       -0.2542
      7 C          -0.7527    0.9298    5.0248 C.3     1  LIG1        0.0726
      8 H          -1.0110    1.2662    4.1534 H       1  LIG1        0.0472
      9 H          -1.2881    0.1449    5.2221 H       1  LIG1        0.0472
     10 C          -0.9713    1.9860    6.0763 C.2     1  LIG1        0.2307
     11 C           1.2664    1.3009    6.6447 C.3     1  LIG1        0.1239
     12 H           2.0711    1.8583    6.5873 H       1  LIG1        0.0663
     13 C           0.1923    3.2553    7.8019 C.ar    1  LIG1        0.0376
     14 C          -0.8345    3.4609    8.6993 C.ar    1  LIG1       -0.0402
     15 H          -1.5460    2.8640    8.7479 H       1  LIG1        0.0636
     16 C          -0.7890    4.5718    9.5275 C.ar    1  LIG1       -0.0600
     17 H          -1.4883    4.7337   10.1193 H       1  LIG1        0.0618
     18 C           0.2777    5.4333    9.4832 C.ar    1  LIG1       -0.0616
     19 H           0.3025    6.1705   10.0497 H       1  LIG1        0.0618
     20 C           1.3000    5.2113    8.6107 C.ar    1  LIG1       -0.0600
     21 H           2.0251    5.7932    8.5928 H       1  LIG1        0.0618
     22 C           1.2672    4.1259    7.7509 C.ar    1  LIG1       -0.0402
     23 H           1.9593    3.9831    7.1464 H       1  LIG1        0.0636
     24 C           1.4724    0.2425    7.7541 C.3     1  LIG1        0.2183
@<TRIPOS>BOND
     1     8     7    1
     2     7     4    1
     3     7     9    1
     4     7    10    1
     5     4    11    1
     6    10     5    2
     7    10     6   am
     8    12    11    1
     9    11     6    1
    10    11    24    1
    11     6    13    1
    12    23    22    1
    13     2    24    1
    14    22    13   ar
    15    22    20   ar
    16    24     1    1
    17    24     3    1
    18    13    14   ar
    19    21    20    1
    20    20    18   ar
    21    14    15    1
    22    14    16   ar
    23    18    16   ar
    24    18    19    1
    25    16    17    1
