@<TRIPOS>MOLECULE
4-[(3-Methylbut-3-enoyl)oxy]phenyl 4-<i>n</i>-hexyloxybenzoate
 54 55 0 0 0
SMALL
GASTEIGER

@<TRIPOS>ATOM
      1 O           7.3645    0.5417    2.8706 O.2     1  LIG1       -0.2445
      2 O           5.3615   -0.2194    3.5895 O.3     1  LIG1       -0.4223
      3 O           5.8263   -3.1411   -2.0063 O.3     1  LIG1       -0.4920
      4 O           5.2778    3.2104    7.9314 O.3     1  LIG1       -0.4226
      5 O           3.3356    2.4704    8.8068 O.2     1  LIG1       -0.2449
      6 C           6.4041   -0.1671    2.7118 C.2     1  LIG1        0.3444
      7 C           6.1950   -1.0518    1.5477 C.ar    1  LIG1        0.0596
      8 C           7.2088   -1.0752    0.5876 C.ar    1  LIG1       -0.0443
      9 H           8.0334   -0.5796    0.7307 H       1  LIG1        0.0627
     10 C           7.0605   -1.7874   -0.5791 C.ar    1  LIG1       -0.0192
     11 H           7.7265   -1.7880   -1.2687 H       1  LIG1        0.0654
     12 C           5.8864   -2.5067   -0.8089 C.ar    1  LIG1        0.1205
     13 C           4.8837   -2.5316    0.1606 C.ar    1  LIG1       -0.0192
     14 H           4.0889   -3.0477    0.0127 H       1  LIG1        0.0654
     15 C           5.0419   -1.7962    1.3297 C.ar    1  LIG1       -0.0443
     16 H           4.3510   -1.8059    1.9825 H       1  LIG1        0.0627
     17 C           5.3785    0.6536    4.6914 C.ar    1  LIG1        0.1322
     18 C           4.2569    1.4422    4.8646 C.ar    1  LIG1       -0.0157
     19 H           3.5632    1.3972    4.2277 H       1  LIG1        0.0655
     20 C           4.1817    2.2757    5.9671 C.ar    1  LIG1       -0.0157
     21 H           3.4154    2.8397    6.1022 H       1  LIG1        0.0655
     22 C           5.2366    2.3066    6.8605 C.ar    1  LIG1        0.1322
     23 C           6.3582    1.5188    6.6855 C.ar    1  LIG1       -0.0157
     24 H           7.0343    1.5793    7.3371 H       1  LIG1        0.0655
     25 C           6.4295    0.6748    5.5890 C.ar    1  LIG1       -0.0157
     26 H           7.2283    0.1440    5.4435 H       1  LIG1        0.0655
     27 C           4.6059   -3.8089   -2.3706 C.3     1  LIG1        0.0896
     28 H           3.8640   -3.1788   -2.3172 H       1  LIG1        0.0696
     29 H           4.4204   -4.5540   -1.7538 H       1  LIG1        0.0696
     30 C           4.7761   -4.2988   -3.7865 C.3     1  LIG1       -0.0186
     31 H           5.6140   -4.8835   -3.8337 H       1  LIG1        0.0298
     32 H           4.9380   -3.5335   -4.3760 H       1  LIG1        0.0298
     33 C           3.5524   -5.0558   -4.2830 C.3     1  LIG1       -0.0500
     34 H           2.7510   -4.5052   -4.1536 H       1  LIG1        0.0266
     35 H           3.3925   -5.8548   -3.7109 H       1  LIG1        0.0266
     36 C           3.6657   -5.4926   -5.7366 C.3     1  LIG1       -0.0532
     37 H           3.7856   -4.6814   -6.3204 H       1  LIG1        0.0265
     38 H           4.4769   -6.0594   -5.8374 H       1  LIG1        0.0265
     39 C           2.4453   -6.2541   -6.2272 C.3     1  LIG1       -0.0559
     40 H           2.2654   -7.0233   -5.5854 H       1  LIG1        0.0263
     41 H           1.6530   -5.6835   -6.1425 H       1  LIG1        0.0263
     42 C           2.5866   -6.8238   -7.6205 C.3     1  LIG1       -0.0653
     43 H           2.7458   -6.1281   -8.2923 H       1  LIG1        0.0230
     44 H           1.7713   -7.3449   -7.8729 H       1  LIG1        0.0230
     45 H           3.3541   -7.4542   -7.6654 H       1  LIG1        0.0230
     46 C           4.2961    3.1880    8.8714 C.2     1  LIG1        0.3396
     47 C           4.6023    4.1603    9.9573 C.2     1  LIG1        0.0269
     48 C           3.7472    4.2125   10.9916 C.2     1  LIG1       -0.0890
     49 H           3.9343    4.8238   11.7067 H       1  LIG1        0.0540
     50 H           3.0102    3.6224   11.0585 H       1  LIG1        0.0540
     51 C           5.8239    4.9843    9.8542 C.3     1  LIG1       -0.0335
     52 H           6.6336    4.4291    9.7644 H       1  LIG1        0.0280
     53 H           5.9352    5.5994   10.6031 H       1  LIG1        0.0280
     54 H           5.7885    5.5417    9.0082 H       1  LIG1        0.0280
@<TRIPOS>BOND
     1    43    42    1
     2    44    42    1
     3    45    42    1
     4    42    39    1
     5    37    36    1
     6    39    41    1
     7    39    36    1
     8    39    40    1
     9    38    36    1
    10    36    33    1
    11    32    30    1
    12    33    34    1
    13    33    30    1
    14    33    35    1
    15    31    30    1
    16    30    27    1
    17    27    28    1
    18    27     3    1
    19    27    29    1
    20     3    12    1
    21    11    10    1
    22    12    10   ar
    23    12    13   ar
    24    10     8   ar
    25    14    13    1
    26    13    15   ar
    27     8     9    1
    28     8     7   ar
    29    15     7   ar
    30    15    16    1
    31     7     6    1
    32     6     1    2
    33     6     2    1
    34     2    17    1
    35    19    18    1
    36    17    18   ar
    37    17    25   ar
    38    18    20   ar
    39    26    25    1
    40    25    23   ar
    41    20    21    1
    42    20    22   ar
    43    23    22   ar
    44    23    24    1
    45    22     4    1
    46     4    46    1
    47     5    46    2
    48    46    47    1
    49    54    51    1
    50    52    51    1
    51    51    47    1
    52    51    53    1
    53    47    48    2
    54    48    50    1
    55    48    49    1
