@<TRIPOS>MOLECULE
(4b<i>S</i>)-3-Hydroxy-2-isopropyl-4b,8,8-trimethyl-4b,5,6,7,8,8a-hexahydrophenanthrene-1,4-dione
 49 51 0 0 0
SMALL
GASTEIGER

@<TRIPOS>ATOM
      1 C           3.0477    7.0396    1.5461 C.3     1  LIG1        0.0007
      2 C           4.0264    8.2181    1.7691 C.3     1  LIG1       -0.0227
      3 H           4.6113    8.1937    0.9826 H       1  LIG1        0.0317
      4 C           5.0055    8.0908    2.9742 C.3     1  LIG1       -0.0310
      5 C           5.7245    6.7473    2.8594 C.3     1  LIG1       -0.0476
      6 H           6.3239    6.7737    2.0978 H       1  LIG1        0.0271
      7 H           6.2614    6.6076    3.6551 H       1  LIG1        0.0271
      8 C           4.7711    5.5780    2.6965 C.3     1  LIG1       -0.0518
      9 H           4.2208    5.4996    3.4919 H       1  LIG1        0.0266
     10 H           5.2810    4.7586    2.6037 H       1  LIG1        0.0266
     11 C           3.8649    5.7552    1.4689 C.3     1  LIG1       -0.0432
     12 H           4.4124    5.7723    0.6677 H       1  LIG1        0.0274
     13 H           3.2639    4.9966    1.4027 H       1  LIG1        0.0274
     14 C           1.9527    6.9092    2.6193 C.3     1  LIG1       -0.0551
     15 H           1.2391    6.3624    2.2843 H       1  LIG1        0.0238
     16 H           1.6136    7.7805    2.8377 H       1  LIG1        0.0238
     17 H           2.3239    6.5042    3.4071 H       1  LIG1        0.0238
     18 C           4.3737    8.2565    4.3154 C.3     1  LIG1       -0.0595
     19 H           3.8406    7.4842    4.5158 H       1  LIG1        0.0235
     20 H           3.8169    9.0385    4.3126 H       1  LIG1        0.0235
     21 H           5.0587    8.3543    4.9814 H       1  LIG1        0.0235
     22 C           6.0680    9.1964    2.8423 C.3     1  LIG1       -0.0595
     23 H           5.6606   10.0522    2.9938 H       1  LIG1        0.0235
     24 H           6.4462    9.1735    1.9602 H       1  LIG1        0.0235
     25 H           6.7613    9.0528    3.4912 H       1  LIG1        0.0235
     26 C           3.3201    9.5140    1.6533 C.3     1  LIG1       -0.0257
     27 H           3.4063   10.1601    2.3168 H       1  LIG1        0.0313
     28 C           2.5403    9.7465    0.5543 C.3     1  LIG1       -0.0012
     29 H           2.2788   10.6066    0.3168 H       1  LIG1        0.0359
     30 C           2.1308    8.5703   -0.2369 C.2     1  LIG1        0.0111
     31 C           2.3141    7.3143    0.2241 C.2     1  LIG1        0.0162
     32 C           1.6517    6.2340   -0.5114 C.2     1  LIG1        0.2245
     33 C           1.1657    6.4903   -1.9042 C.2     1  LIG1        0.1710
     34 C           1.0707    7.7232   -2.4241 C.2     1  LIG1        0.0473
     35 C           1.4806    8.8381   -1.5589 C.2     1  LIG1        0.1898
     36 C           0.6253    8.0317   -3.8469 C.3     1  LIG1       -0.0143
     37 H           0.5496    9.0061   -3.9198 H       1  LIG1        0.0346
     38 C           1.6607    7.5951   -4.8429 C.3     1  LIG1       -0.0584
     39 H           2.4889    8.0464   -4.6624 H       1  LIG1        0.0235
     40 H           1.3644    7.8128   -5.7295 H       1  LIG1        0.0235
     41 H           1.7920    6.6465   -4.7731 H       1  LIG1        0.0235
     42 C          -0.7566    7.4470   -4.1653 C.3     1  LIG1       -0.0584
     43 H          -0.7007    6.4892   -4.1892 H       1  LIG1        0.0235
     44 H          -1.0525    7.7722   -5.0185 H       1  LIG1        0.0235
     45 H          -1.3806    7.7147   -3.4866 H       1  LIG1        0.0235
     46 O           1.4429    5.1153   -0.0515 O.2     1  LIG1       -0.2837
     47 O           0.8041    5.3800   -2.5657 O.2     1  LIG1       -0.5029
     48 H           0.8745    4.8184   -1.9728 H       1  LIG1        0.2923
     49 O           1.3274   10.0043   -1.9192 O.2     1  LIG1       -0.2872
@<TRIPOS>BOND
     1    40    38    1
     2    44    42    1
     3    38    41    1
     4    38    39    1
     5    38    36    1
     6    43    42    1
     7    42    36    1
     8    42    45    1
     9    37    36    1
    10    36    34    1
    11    47    48    1
    12    47    33    1
    13    34    33    2
    14    34    35    1
    15    49    35    2
    16    33    32    1
    17    35    30    1
    18    32    46    2
    19    32    31    1
    20    30    31    2
    21    30    28    1
    22    31     1    1
    23    29    28    1
    24    28    26    1
    25    12    11    1
    26     3     2    1
    27    13    11    1
    28    11     1    1
    29    11     8    1
    30     1     2    1
    31     1    14    1
    32    26     2    1
    33    26    27    1
    34     2     4    1
    35    24    22    1
    36     6     5    1
    37    15    14    1
    38    10     8    1
    39    14    16    1
    40    14    17    1
    41     8     5    1
    42     8     9    1
    43    22     4    1
    44    22    23    1
    45    22    25    1
    46     5     4    1
    47     5     7    1
    48     4    18    1
    49    20    18    1
    50    18    19    1
    51    18    21    1
