@<TRIPOS>MOLECULE
<i>N</i>^2^,<i>N</i>^5^-Bis(pyridin-4-ylmethyl)pyrazine-2,5-dicarboxamide
 21 21 0 0 0
SMALL
GASTEIGER

@<TRIPOS>ATOM
      1 N           0.2695    8.6639    7.3047 N.2     1  LIG1       -0.2680
      2 N          -1.0787    7.7485    5.1454 N.am    1  LIG1       -0.3090
      3 H          -1.4043    7.8129    6.0091 H       1  LIG1        0.1491
      4 N          -2.1596    2.8778    3.9513 N.ar    1  LIG1       -0.2632
      5 O           0.6835    8.2555    3.8024 O.2     1  LIG1       -0.2729
      6 C           0.8210    8.8659    6.1027 C.3     1  LIG1        0.2091
      7 C           0.9245    9.1761    8.3518 C.2     1  LIG1        0.0412
      8 H           0.5740    9.0519    9.2260 H       1  LIG1        0.0841
      9 C           0.1329    8.2701    4.8997 C.2     1  LIG1        0.2470
     10 C          -1.8984    7.1917    4.0820 C.3     1  LIG1        0.0370
     11 H          -1.5319    7.4866    3.2109 H       1  LIG1        0.0512
     12 H          -2.8143    7.5592    4.1616 H       1  LIG1        0.0512
     13 C          -1.9795    5.6821    4.0882 C.ar    1  LIG1       -0.0275
     14 C          -3.0955    5.0600    3.5526 C.ar    1  LIG1       -0.0389
     15 H          -3.8225    5.5736    3.2207 H       1  LIG1        0.0636
     16 C          -3.1332    3.6763    3.5104 C.ar    1  LIG1        0.0279
     17 H          -3.9067    3.2668    3.1416 H       1  LIG1        0.0829
     18 C          -1.0967    3.4954    4.4829 C.ar    1  LIG1        0.0279
     19 H          -0.3901    2.9573    4.8201 H       1  LIG1        0.0829
     20 C          -0.9650    4.8702    4.5700 C.ar    1  LIG1       -0.0389
     21 H          -0.1868    5.2539    4.9562 H       1  LIG1        0.0636
@<TRIPOS>BOND
     1    17    16    1
     2    11    10    1
     3    15    14    1
     4    16    14   ar
     5    16     4   ar
     6    14    13   ar
     7     5     9    2
     8     4    18   ar
     9    10    13    1
    10    10    12    1
    11    10     2    1
    12    13    20   ar
    13    18    20   ar
    14    18    19    1
    15    20    21    1
    16     9     2   am
    17     9     6    1
    18     2     3    1
    19     6     1    1
    20     1     7    2
    21     7     8    1
