@<TRIPOS>MOLECULE
2-Amino-3-cyano-4-(2,6-dichlorophenyl)-7-hydroxy-4<i>H</i>-\ benzo[1,2-<i>b</i>]pyran
 32 34 0 0 0
SMALL
GASTEIGER

@<TRIPOS>ATOM
      1 CL          4.3392    5.9853    4.2281 Cl      1  LIG1       -0.0832
      2 CL         -0.0759    2.8386    4.7342 Cl      1  LIG1       -0.0832
      3 O           6.3519    0.9784    1.2805 O.3     1  LIG1       -0.5066
      4 H           6.4315    0.2573    1.7048 H       1  LIG1        0.2921
      5 O           4.0850    5.0407    1.0453 O.3     1  LIG1       -0.4409
      6 N           0.2236    7.2995    2.4323 N.1     1  LIG1       -0.1910
      7 N           3.1578    7.0015    0.6309 N.pl3   1  LIG1       -0.3284
      8 H           3.8345    7.1255    0.1141 H       1  LIG1        0.1451
      9 H           2.5587    7.6132    0.7082 H       1  LIG1        0.1451
     10 C           5.2719    1.6970    1.6946 C.ar    1  LIG1        0.1204
     11 C           4.3095    1.2120    2.5725 C.ar    1  LIG1       -0.0197
     12 H           4.3653    0.3416    2.8943 H       1  LIG1        0.0654
     13 C           3.2715    2.0321    2.9622 C.ar    1  LIG1       -0.0507
     14 H           2.6314    1.6991    3.5487 H       1  LIG1        0.0623
     15 C           3.1492    3.3427    2.5069 C.ar    1  LIG1        0.0078
     16 C           2.0317    4.2452    2.9870 C.3     1  LIG1        0.0550
     17 H           1.1859    3.7885    2.7946 H       1  LIG1        0.0457
     18 C           2.1002    4.4574    4.5084 C.ar    1  LIG1        0.0019
     19 C           1.1778    3.8578    5.3696 C.ar    1  LIG1        0.0465
     20 C           1.2111    4.0037    6.7449 C.ar    1  LIG1       -0.0430
     21 H           0.5678    3.5944    7.2770 H       1  LIG1        0.0632
     22 C           2.1992    4.7539    7.3117 C.ar    1  LIG1       -0.0590
     23 H           2.2279    4.8616    8.2357 H       1  LIG1        0.0618
     24 C           2.0457    5.5252    2.1773 C.2     1  LIG1        0.0981
     25 C           1.0207    6.4848    2.3347 C.1     1  LIG1        0.1008
     26 C           3.0376    5.8538    1.3159 C.2     1  LIG1        0.1985
     27 C           4.1036    3.7671    1.6074 C.ar    1  LIG1        0.1376
     28 C           5.1573    2.9780    1.1925 C.ar    1  LIG1        0.0225
     29 H           5.7807    3.3046    0.5849 H       1  LIG1        0.0691
     30 C           3.1504    5.3518    6.5232 C.ar    1  LIG1       -0.0430
     31 H           3.8311    5.8541    6.9098 H       1  LIG1        0.0632
     32 C           3.0903    5.2022    5.1487 C.ar    1  LIG1        0.0465
@<TRIPOS>BOND
     1     8     7    1
     2    29    28    1
     3     7     9    1
     4     7    26    1
     5     5    26    1
     6     5    27    1
     7    28    27   ar
     8    28    10   ar
     9     3    10    1
    10     3     4    1
    11    26    24    2
    12    27    15   ar
    13    10    11   ar
    14    24    25    1
    15    24    16    1
    16    25     6    3
    17    15    13   ar
    18    15    16    1
    19    11    12    1
    20    11    13   ar
    21    17    16    1
    22    13    14    1
    23    16    18    1
    24     1    32    1
    25    18    32   ar
    26    18    19   ar
    27     2    19    1
    28    32    30   ar
    29    19    20   ar
    30    30    31    1
    31    30    22   ar
    32    20    21    1
    33    20    22   ar
    34    22    23    1
