@<TRIPOS>MOLECULE
Ethyl 5-methyl-1,1-dioxo-2-{[5-(pentan-3-yl)-1,2,4-oxadiazol-3-yl]methyl}-2<i>H</i>-1,2,6-thiadiazine-4-carboxylate
 47 48 0 0 0
SMALL
GASTEIGER

@<TRIPOS>ATOM
      1 S           8.2911    4.0252    9.3740 S.O2    1  LIG1        0.1536
      2 O           9.3590    2.9336   13.8599 O.2     1  LIG1       -0.3377
      3 O           7.5809    3.1103   10.1928 O.2     1  LIG1       -0.1310
      4 O           9.5438    3.5983    8.8887 O.2     1  LIG1       -0.1310
      5 O           5.9269    8.5364   10.3378 O.2     1  LIG1       -0.2448
      6 O           4.3968    7.2403    9.3323 O.3     1  LIG1       -0.4614
      7 N           8.1315    4.5927   13.1287 N.ar    1  LIG1       -0.1941
      8 N          10.0904    3.5338   12.8109 N.ar    1  LIG1       -0.0596
      9 N           8.5741    5.4004   10.2935 N.pl3   1  LIG1       -0.1864
     10 N           7.3669    4.5500    8.1930 N.2     1  LIG1       -0.1192
     11 C           8.2086    3.6192   13.9614 C.ar    1  LIG1        0.2305
     12 C           9.3112    4.4905   12.4327 C.ar    1  LIG1        0.1907
     13 C           9.6746    5.3638   11.2756 C.3     1  LIG1        0.0987
     14 H           9.8585    6.2620   11.5915 H       1  LIG1        0.0565
     15 H          10.4776    5.0228   10.8514 H       1  LIG1        0.0565
     16 C           7.6244    6.3512   10.3387 C.2     1  LIG1        0.0326
     17 H           7.6925    7.0049   10.9963 H       1  LIG1        0.0807
     18 C           6.5698    6.4147    9.4811 C.2     1  LIG1        0.0968
     19 C           6.5251    5.5454    8.3522 C.2     1  LIG1        0.0765
     20 C           5.5970    5.7696    7.1990 C.3     1  LIG1       -0.0199
     21 H           5.8877    5.2461    6.4485 H       1  LIG1        0.0293
     22 H           5.6008    6.6995    6.9613 H       1  LIG1        0.0293
     23 H           4.7083    5.5061    7.4480 H       1  LIG1        0.0293
     24 C           5.6233    7.5291    9.7495 C.2     1  LIG1        0.3422
     25 C           3.3765    8.2525    9.5791 C.3     1  LIG1        0.0900
     26 H           3.4481    8.5819   10.4885 H       1  LIG1        0.0695
     27 H           3.4958    8.9998    8.9722 H       1  LIG1        0.0695
     28 C           2.0881    7.6482    9.3719 C.3     1  LIG1       -0.0306
     29 H           2.0488    7.2713    8.4898 H       1  LIG1        0.0262
     30 H           1.4031    8.3149    9.4653 H       1  LIG1        0.0262
     31 H           1.9506    6.9555   10.0222 H       1  LIG1        0.0262
     32 C           7.2216    3.1111   14.9581 C.3     1  LIG1        0.0376
     33 H           6.4624    3.7306   14.9745 H       1  LIG1        0.0396
     34 C           6.7005    1.7357   14.5030 C.3     1  LIG1       -0.0446
     35 H           7.4543    1.1294   14.4287 H       1  LIG1        0.0270
     36 H           6.1110    1.3862   15.1894 H       1  LIG1        0.0270
     37 C           5.9607    1.7426   13.1938 C.3     1  LIG1       -0.0646
     38 H           6.5281    2.1018   12.5076 H       1  LIG1        0.0230
     39 H           5.1732    2.2859   13.2745 H       1  LIG1        0.0230
     40 H           5.7087    0.8456   12.9638 H       1  LIG1        0.0230
     41 C           7.8151    3.0605   16.3549 C.3     1  LIG1       -0.0446
     42 H           7.1575    2.6785   16.9575 H       1  LIG1        0.0270
     43 H           8.5826    2.4681   16.3448 H       1  LIG1        0.0270
     44 C           8.2437    4.3952   16.8961 C.3     1  LIG1       -0.0646
     45 H           8.9278    4.7641   16.3318 H       1  LIG1        0.0230
     46 H           8.5889    4.2840   17.7852 H       1  LIG1        0.0230
     47 H           7.4909    4.9896   16.9168 H       1  LIG1        0.0230
@<TRIPOS>BOND
     1    21    20    1
     2    22    20    1
     3    20    23    1
     4    20    19    1
     5    10    19    2
     6    10     1    1
     7    19    18    1
     8    29    28    1
     9     4     1    2
    10    27    25    1
    11     6    25    1
    12     6    24    1
    13    28    30    1
    14    28    25    1
    15    28    31    1
    16     1     3    2
    17     1     9    1
    18    18    24    1
    19    18    16    2
    20    25    26    1
    21    24     5    2
    22     9    16    1
    23     9    13    1
    24    16    17    1
    25    15    13    1
    26    13    14    1
    27    13    12    1
    28    12     8   ar
    29    12     7   ar
    30    38    37    1
    31     8     2   ar
    32    40    37    1
    33     7    11   ar
    34    37    39    1
    35    37    34    1
    36     2    11   ar
    37    11    32    1
    38    35    34    1
    39    34    32    1
    40    34    36    1
    41    32    33    1
    42    32    41    1
    43    45    44    1
    44    43    41    1
    45    41    44    1
    46    41    42    1
    47    44    47    1
    48    44    46    1
