@<TRIPOS>MOLECULE
1-Methyl-4-(2-methyl-10<i>H</i>-benzo[<i>b</i>]thieno[2,3-<i>e</i>][1,4]diazepin-4-yl)piperazin-1-ium 2,5-dihydroxybenzoate propan-2-ol monosolvate
 71 73 0 0 0
SMALL
GASTEIGER

@<TRIPOS>ATOM
      1 C          -3.4672   14.0834    3.5836 C.3     1  LIG1       -0.0333
      2 H          -3.5411   13.3182    3.0084 H       1  LIG1        0.0283
      3 H          -4.1615   14.7114    3.3715 H       1  LIG1        0.0283
      4 H          -3.5545   13.8061    4.4982 H       1  LIG1        0.0283
      5 C          -2.1331   14.7296    3.3843 C.ar    1  LIG1       -0.0107
      6 C          -1.1612   14.4662    2.4947 C.ar    1  LIG1       -0.0350
      7 H          -1.2352   13.7981    1.8524 H       1  LIG1        0.0635
      8 C          -0.0003   15.2984    2.6188 C.ar    1  LIG1        0.0942
      9 C          -0.1412   16.2077    3.6260 C.ar    1  LIG1        0.0850
     10 C           1.1403   18.0781    2.9390 C.ar    1  LIG1        0.0831
     11 C           1.0109   19.4448    3.1107 C.ar    1  LIG1       -0.0363
     12 H           0.6416   19.7716    3.8988 H       1  LIG1        0.0637
     13 C           1.4165   20.3318    2.1374 C.ar    1  LIG1       -0.0597
     14 H           1.3273   21.2478    2.2701 H       1  LIG1        0.0618
     15 C           1.9540   19.8505    0.9701 C.ar    1  LIG1       -0.0575
     16 H           2.2229   20.4380    0.3011 H       1  LIG1        0.0619
     17 C           2.0922   18.4834    0.7941 C.ar    1  LIG1       -0.0090
     18 H           2.4641   18.1683    0.0025 H       1  LIG1        0.0661
     19 C           1.6957   17.5673    1.7600 C.ar    1  LIG1        0.1974
     20 C           1.2432   15.2299    1.8289 C.2     1  LIG1        0.3239
     21 C           1.4438   12.7738    2.1576 C.3     1  LIG1        0.1204
     22 H           0.7113   12.8844    2.7845 H       1  LIG1        0.0780
     23 H           2.2584   12.6363    2.6654 H       1  LIG1        0.0780
     24 C           1.1841   11.5797    1.2818 C.3     1  LIG1        0.0049
     25 H           1.1264   10.7821    1.8307 H       1  LIG1        0.0852
     26 H           0.3368   11.6921    0.8239 H       1  LIG1        0.0852
     27 C           2.4823   12.6664   -0.4866 C.3     1  LIG1        0.0049
     28 H           1.7125   12.8263   -1.0553 H       1  LIG1        0.0852
     29 H           3.2583   12.5610   -1.0587 H       1  LIG1        0.0852
     30 C           2.6876   13.8542    0.4114 C.3     1  LIG1        0.1204
     31 H           3.5133   13.7483    0.9095 H       1  LIG1        0.0780
     32 H           2.7585   14.6602   -0.1238 H       1  LIG1        0.0780
     33 C           2.0170   10.2620   -0.6160 C.3     1  LIG1       -0.0428
     34 H           1.1861   10.3920   -1.0784 H       1  LIG1        0.0778
     35 H           1.9721    9.4556   -0.0971 H       1  LIG1        0.0778
     36 H           2.7309   10.1920   -1.2544 H       1  LIG1        0.0778
     37 N           1.9999   16.2178    1.5002 N.2     1  LIG1       -0.0395
     38 N           0.7684   17.1890    3.9939 N.pl3   1  LIG1       -0.3050
     39 H           0.5228   17.6262    4.6968 H       1  LIG1        0.1528
     40 N           1.5723   13.9754    1.3327 N.pl3   1  LIG1       -0.2097
     41 N           2.2690   11.4142    0.2820 N.4     1  LIG1        0.2384
     42 H           2.9858   11.2657    0.7952 H       1  LIG1        0.2033
     43 S          -1.6697   16.0437    4.4186 S.2     1  LIG1       -0.0779
     44 C           4.6398    9.8081    2.0038 C.2     2  LIG2        0.3902
     45 C           5.8961    9.4245    2.7206 C.ar    2  LIG2        0.1078
     46 C           6.7273   10.3888    3.2910 C.ar    2  LIG2       -0.0025
     47 H           6.5096   11.2888    3.2041 H       2  LIG2        0.0663
     48 C           7.8619   10.0337    3.9791 C.ar    2  LIG2        0.1179
     49 C           8.2011    8.7009    4.0830 C.ar    2  LIG2       -0.0167
     50 H           8.9759    8.4549    4.5342 H       2  LIG2        0.0655
     51 C           7.4004    7.7333    3.5221 C.ar    2  LIG2       -0.0159
     52 H           7.6406    6.8377    3.5923 H       2  LIG2        0.0655
     53 C           6.2423    8.0809    2.8541 C.ar    2  LIG2        0.1312
     54 O           4.3921   11.0234    1.8363 O.co2   2  LIG2       -0.2405
     55 O           3.8971    8.8762    1.5946 O.co2   2  LIG2       -0.2405
     56 O           5.4554    7.0966    2.3357 O.3     2  LIG2       -0.5059
     57 H           4.7797    7.5511    1.9720 H       2  LIG2        0.2922
     58 O           8.6113   11.0359    4.5442 O.3     2  LIG2       -0.5067
     59 H           9.1762   10.6793    5.0679 H       2  LIG2        0.2921
     60 C           3.6764   11.1585    5.5058 C.3     3  LIG3       -0.0392
     61 H           3.4718   11.9250    6.0463 H       3  LIG3        0.0254
     62 H           3.2221   11.2308    4.6630 H       3  LIG3        0.0254
     63 H           4.6239   11.1168    5.3556 H       3  LIG3        0.0254
     64 C           3.2308    9.9263    6.2045 C.3     3  LIG3        0.0496
     65 H           3.6470    9.9111    7.0916 H       3  LIG3        0.0588
     66 C           3.6149    8.6708    5.4888 C.3     3  LIG3       -0.0392
     67 H           3.2703    8.6951    4.5928 H       3  LIG3        0.0254
     68 H           3.2485    7.9138    5.9518 H       3  LIG3        0.0254
     69 H           4.5715    8.5974    5.4618 H       3  LIG3        0.0254
     70 O           1.8052   10.0340    6.3794 O.3     3  LIG3       -0.3923
     71 H           1.4992    9.3161    6.7961 H       3  LIG3        0.2098
@<TRIPOS>BOND
     1    36    33    1
     2    34    33    1
     3    29    27    1
     4    28    27    1
     5    33    35    1
     6    33    41    1
     7    27    41    1
     8    27    30    1
     9    32    30    1
    10    18    17    1
    11    41    42    1
    12    41    24    1
    13    16    15    1
    14    30    31    1
    15    30    40    1
    16    17    15   ar
    17    17    19   ar
    18    26    24    1
    19    15    13   ar
    20    24    25    1
    21    24    21    1
    22    40    20    1
    23    40    21    1
    24    37    19    1
    25    37    20    2
    26    55    44   ar
    27    19    10   ar
    28    20     8    1
    29    54    44   ar
    30     7     6    1
    31    57    56    1
    32    44    45    1
    33    13    14    1
    34    13    11   ar
    35    21    23    1
    36    21    22    1
    37    56    53    1
    38     6     8   ar
    39     6     5   ar
    40     8     9   ar
    41    45    53   ar
    42    45    46   ar
    43    53    51   ar
    44    10    11   ar
    45    10    38    1
    46     2     1    1
    47    11    12    1
    48    47    46    1
    49    46    48   ar
    50     3     1    1
    51     5     1    1
    52     5    43   ar
    53    51    52    1
    54    51    49   ar
    55     1     4    1
    56     9    38    1
    57     9    43   ar
    58    48    49   ar
    59    48    58    1
    60    38    39    1
    61    49    50    1
    62    58    59    1
    63    67    66    1
    64    62    60    1
    65    63    60    1
    66    69    66    1
    67    66    68    1
    68    66    64    1
    69    60    61    1
    70    60    64    1
    71    64    70    1
    72    64    65    1
    73    70    71    1
