@<TRIPOS>MOLECULE
C14 H11 F N2 S
 29 30 0 0 0
SMALL
GASTEIGER

@<TRIPOS>ATOM
      1 S           3.2756    5.3781    1.4278 S.3     1  LIG1       -0.0549
      2 F           1.0639    7.2183    1.8615 F       1  LIG1       -0.2043
      3 N           3.9705    4.1619    0.5893 N.pl3   1  LIG1       -0.1136
      4 N           3.9120    4.2957   -1.8648 N.1     1  LIG1       -0.1717
      5 C          -1.1240    4.3733    1.7411 C.ar    1  LIG1       -0.0590
      6 H          -2.0301    4.1710    1.7960 H       1  LIG1        0.0618
      7 C          -0.7126    5.6836    1.8544 C.ar    1  LIG1       -0.0253
      8 H          -1.3252    6.3701    1.9899 H       1  LIG1        0.0646
      9 C           0.6288    5.9409    1.7607 C.ar    1  LIG1        0.1375
     10 C           1.5538    4.9440    1.5799 C.ar    1  LIG1        0.0533
     11 C           3.8609    4.9229    3.0771 C.3     1  LIG1        0.0330
     12 H           3.7482    3.9687    3.2067 H       1  LIG1        0.0436
     13 H           4.8069    5.1256    3.1506 H       1  LIG1        0.0436
     14 C           3.1101    5.6607    4.1449 C.ar    1  LIG1       -0.0365
     15 C           3.4461    6.9628    4.4639 C.ar    1  LIG1       -0.0578
     16 H           4.1413    7.3861    4.0145 H       1  LIG1        0.0621
     17 C           2.7529    7.6339    5.4453 C.ar    1  LIG1       -0.0615
     18 H           2.9803    8.5112    5.6525 H       1  LIG1        0.0618
     19 C           1.7331    7.0202    6.1142 C.ar    1  LIG1       -0.0617
     20 H           1.2704    7.4782    6.7775 H       1  LIG1        0.0618
     21 C          -0.2190    3.3640    1.5484 C.ar    1  LIG1       -0.0605
     22 H          -0.5167    2.4867    1.4689 H       1  LIG1        0.0618
     23 C           1.1273    3.6366    1.4717 C.ar    1  LIG1       -0.0448
     24 H           1.7413    2.9492    1.3490 H       1  LIG1        0.0630
     25 C           3.9160    4.2978   -0.7160 C.1     1  LIG1        0.1991
     26 C           2.0759    5.0446    4.8235 C.ar    1  LIG1       -0.0578
     27 H           1.8404    4.1698    4.6162 H       1  LIG1        0.0621
     28 C           1.3932    5.7257    5.8094 C.ar    1  LIG1       -0.0615
     29 H           0.6999    5.3086    6.2677 H       1  LIG1        0.0618
@<TRIPOS>BOND
     1     4    25    3
     2    25     3    1
     3     3     1    1
     4    24    23    1
     5     1    10    1
     6     1    11    1
     7    22    21    1
     8    23    21   ar
     9    23    10   ar
    10    21     5   ar
    11    10     9   ar
    12     5     6    1
    13     5     7   ar
    14     9     7   ar
    15     9     2    1
    16     7     8    1
    17    11    13    1
    18    11    12    1
    19    11    14    1
    20    16    15    1
    21    14    15   ar
    22    14    26   ar
    23    15    17   ar
    24    27    26    1
    25    26    28   ar
    26    17    18    1
    27    17    19   ar
    28    28    19   ar
    29    28    29    1
    30    19    20    1
