@<TRIPOS>MOLECULE
C2 H2 O4, 2(H2 O1)
 7 5 0 0 0
SMALL
GASTEIGER

@<TRIPOS>ATOM
      1 O           1.6515    1.5496    4.0169 O.3     1  LIG1       -0.4726
      2 O           0.1549    2.5908    5.3243 O.2     1  LIG1       -0.2378
      3 C           1.1788    1.9490    5.1437 C.2     1  LIG1        0.4148
      4 H           1.0921    1.7958    3.1334 H       1  LIG1        0.2956
      5 O           0.2832    2.2030    2.0500 O.3     1  LIG1       -0.4105
      6 H           0.8274    2.3502    1.2550 H       0  HOH0        0.2052
      7 H          -0.2839    1.4785    1.7338 H       0  HOH0        0.2052
@<TRIPOS>BOND
     1     6     5    1
     2     7     5    1
     3     4     1    1
     4     1     3    1
     5     3     2    2
