@<TRIPOS>MOLECULE
<i>N</i>-(4-Bromo-3-methylphenyl)-2-(2-chlorophenyl)acetamide
 32 33 0 0 0
SMALL
GASTEIGER

@<TRIPOS>ATOM
      1 C           2.0128    2.9731    7.2931 C.2     1  LIG1        0.2216
      2 O           2.0479    4.1887    7.1551 O.2     1  LIG1       -0.2751
      3 N           2.5384    2.1135    6.4005 N.am    1  LIG1       -0.2852
      4 H           2.4687    1.2534    6.5733 H       1  LIG1        0.1548
      5 C           1.4313    2.3154    8.5192 C.3     1  LIG1        0.0508
      6 H           2.1565    1.8766    9.0308 H       1  LIG1        0.0407
      7 H           0.7886    1.6156    8.2414 H       1  LIG1        0.0407
      8 C           3.1999    2.4984    5.1946 C.ar    1  LIG1        0.0337
      9 C           2.6042    3.4322    4.3399 C.ar    1  LIG1       -0.0365
     10 H           1.7594    3.8034    4.5650 H       1  LIG1        0.0639
     11 C           3.2361    3.8213    3.1675 C.ar    1  LIG1       -0.0347
     12 C           4.4644    3.2620    2.8947 C.ar    1  LIG1        0.0209
     13 BR          5.4033    3.7519    1.3109 Br      1  LIG1       -0.0500
     14 C           5.0598    2.3334    3.7186 C.ar    1  LIG1       -0.0458
     15 H           5.9076    1.9669    3.4976 H       1  LIG1        0.0629
     16 C           4.4049    1.9405    4.8781 C.ar    1  LIG1       -0.0394
     17 H           4.7936    1.2870    5.4488 H       1  LIG1        0.0636
     18 C           2.5526    4.8152    2.2475 C.3     1  LIG1       -0.0386
     19 H           2.3702    4.3887    1.3852 H       1  LIG1        0.0278
     20 H           3.1381    5.5897    2.1125 H       1  LIG1        0.0278
     21 H           1.7095    5.1088    2.6511 H       1  LIG1        0.0278
     22 C           0.7285    3.3102    9.4084 C.ar    1  LIG1       -0.0203
     23 C          -0.5263    3.8384    9.1040 C.ar    1  LIG1        0.0446
     24 CL         -1.3120    3.3447    7.6367 Cl      1  LIG1       -0.0832
     25 C          -1.1642    4.7476    9.9368 C.ar    1  LIG1       -0.0431
     26 H          -2.0270    5.0771    9.7159 H       1  LIG1        0.0632
     27 C          -0.5317    5.1665   11.0812 C.ar    1  LIG1       -0.0604
     28 H          -0.9565    5.8006   11.6497 H       1  LIG1        0.0618
     29 C           0.7184    4.6734   11.4188 C.ar    1  LIG1       -0.0614
     30 H           1.1494    4.9589   12.2156 H       1  LIG1        0.0618
     31 C           1.3317    3.7537   10.5751 C.ar    1  LIG1       -0.0567
     32 H           2.1908    3.4194   10.8057 H       1  LIG1        0.0621
@<TRIPOS>BOND
     1    13    12    1
     2    19    18    1
     3    20    18    1
     4    18    21    1
     5    18    11    1
     6    12    11   ar
     7    12    14   ar
     8    11     9   ar
     9    15    14    1
    10    14    16   ar
    11     9    10    1
    12     9     8   ar
    13    16     8   ar
    14    16    17    1
    15     8     3    1
    16     3     4    1
    17     3     1   am
    18     2     1    2
    19     1     5    1
    20    24    23    1
    21     7     5    1
    22     5     6    1
    23     5    22    1
    24    23    22   ar
    25    23    25   ar
    26    22    31   ar
    27    26    25    1
    28    25    27   ar
    29    31    32    1
    30    31    29   ar
    31    27    29   ar
    32    27    28    1
    33    29    30    1
