@<TRIPOS>MOLECULE
<i>N</i>-(4-Chloro-3-methylphenyl)-2-phenylacetamide
 32 33 0 0 0
SMALL
GASTEIGER

@<TRIPOS>ATOM
      1 C           1.2453    6.0181    6.5706 C.2     1  LIG1        0.2215
      2 O           0.0697    5.7928    6.3268 O.2     1  LIG1       -0.2751
      3 N           2.2562    5.6168    5.7675 N.am    1  LIG1       -0.2852
      4 H           3.0699    5.8610    5.9969 H       1  LIG1        0.1548
      5 C           1.6946    6.7570    7.8171 C.3     1  LIG1        0.0494
      6 H           2.0358    6.0965    8.4720 H       1  LIG1        0.0407
      7 H           2.4440    7.3580    7.5780 H       1  LIG1        0.0407
      8 C           2.1236    4.8379    4.5855 C.ar    1  LIG1        0.0337
      9 C           2.9806    5.1064    3.5243 C.ar    1  LIG1       -0.0362
     10 H           3.6091    5.8135    3.6115 H       1  LIG1        0.0639
     11 C           2.9518    4.3797    2.3436 C.ar    1  LIG1       -0.0304
     12 C           2.0140    3.3538    2.2707 C.ar    1  LIG1        0.0440
     13 CL          1.8955    2.3833    0.8190 Cl      1  LIG1       -0.0833
     14 C           1.1581    3.0673    3.3152 C.ar    1  LIG1       -0.0414
     15 H           0.5340    2.3564    3.2327 H       1  LIG1        0.0633
     16 C           1.2048    3.8102    4.4828 C.ar    1  LIG1       -0.0391
     17 H           0.6147    3.6171    5.2022 H       1  LIG1        0.0636
     18 C           3.8905    4.7142    1.2142 C.3     1  LIG1       -0.0383
     19 H           3.3784    5.0727    0.4601 H       1  LIG1        0.0278
     20 H           4.3637    3.9039    0.9322 H       1  LIG1        0.0278
     21 H           4.5394    5.3843    1.5166 H       1  LIG1        0.0278
     22 C           0.6114    7.5706    8.4720 C.ar    1  LIG1       -0.0386
     23 C           0.0659    7.1851    9.6826 C.ar    1  LIG1       -0.0581
     24 H           0.3796    6.3972   10.1092 H       1  LIG1        0.0620
     25 C          -0.9346    7.9378   10.2789 C.ar    1  LIG1       -0.0615
     26 H          -1.3039    7.6564   11.1071 H       1  LIG1        0.0618
     27 C          -1.3973    9.0864    9.6850 C.ar    1  LIG1       -0.0617
     28 H          -2.0807    9.6007   10.0985 H       1  LIG1        0.0618
     29 C          -0.8571    9.4843    8.4791 C.ar    1  LIG1       -0.0615
     30 H          -1.1724   10.2749    8.0573 H       1  LIG1        0.0618
     31 C           0.1439    8.7370    7.8828 C.ar    1  LIG1       -0.0581
     32 H           0.5161    9.0257    7.0582 H       1  LIG1        0.0620
@<TRIPOS>BOND
     1    19    18    1
     2    13    12    1
     3    20    18    1
     4    18    21    1
     5    18    11    1
     6    12    11   ar
     7    12    14   ar
     8    11     9   ar
     9    15    14    1
    10    14    16   ar
    11     9    10    1
    12     9     8   ar
    13    16     8   ar
    14    16    17    1
    15     8     3    1
    16     3     4    1
    17     3     1   am
    18     2     1    2
    19     1     5    1
    20    32    31    1
    21     7     5    1
    22     5     6    1
    23     5    22    1
    24    31    22   ar
    25    31    29   ar
    26    30    29    1
    27    22    23   ar
    28    29    27   ar
    29    23    24    1
    30    23    25   ar
    31    27    28    1
    32    27    25   ar
    33    25    26    1
