@<TRIPOS>MOLECULE
1<i>H</i>-Imidazol-3-ium 2,4,6-trinitrophenolate monohydrate
 31 30 0 0 0
SMALL
GASTEIGER

@<TRIPOS>ATOM
      1 C          14.5602   -0.0647   10.4185 C.2     1  LIG1        0.2385
      2 C          15.5874    0.1613   11.4119 C.2     1  LIG1        0.1738
      3 C          16.8633    0.6033   11.1550 C.2     1  LIG1       -0.0109
      4 H          17.4903    0.7142   11.8595 H       1  LIG1        0.0626
      5 C          17.2146    0.8841    9.8392 C.3     1  LIG1        0.1987
      6 C          16.3176    0.6812    8.7899 C.2     1  LIG1       -0.0109
      7 H          16.5733    0.8446    7.8903 H       1  LIG1        0.0626
      8 C          15.0582    0.2395    9.0942 C.2     1  LIG1        0.1738
      9 C          10.5462    1.6764   12.4514 C.2     2  LIG2        0.0045
     10 H          10.1736    1.6114   11.5795 H       2  LIG2        0.0791
     11 C           9.9362    1.3396   13.6158 C.2     2  LIG2        0.0045
     12 H           9.0559    0.9981   13.7170 H       2  LIG2        0.0791
     13 N          15.2744   -0.1215   12.8039 N.pl3   1  LIG1        0.0601
     14 N          18.5182    1.4238    9.5618 N.pl3   1  LIG1        0.0397
     15 N          14.1493    0.0338    7.9693 N.pl3   1  LIG1        0.0601
     16 C          11.9649    2.0613   14.0888 C.3     2  LIG2        0.1200
     17 H          12.7477    2.3079   14.5653 H       2  LIG2        0.0742
     18 N          10.8440    1.5890   14.6258 N.pl3   2  LIG2       -0.3281
     19 H          10.6957    1.4142   15.5310 H       2  LIG2        0.1474
     20 N          11.8018    2.1288   12.7698 N.pl3   2  LIG2       -0.3281
     21 H          12.4348    2.4233   12.2104 H       2  LIG2        0.1474
     22 O          13.4360   -0.5600   10.6517 O.2     1  LIG1       -0.2831
     23 O          19.2985    1.5940   10.5054 O.2     1  LIG1       -0.1304
     24 O          18.8063    1.7159    8.4003 O.2     1  LIG1       -0.1304
     25 O          10.9449    2.3868    9.2996 O.3     3  HOH3       -0.4105
     26 H          10.4627    2.9883    9.5610 H       0  HOH0        0.2052
     27 H          11.7400    2.6472    9.5771 H       0  HOH0        0.2052
     28 O          16.1105   -0.7078   13.4773 O.2     1  LIG1       -0.1260
     29 O          14.1888    0.2551   13.2346 O.2     1  LIG1       -0.1260
     30 O          13.0213    0.5035    8.0517 O.2     1  LIG1       -0.1260
     31 O          14.5727   -0.5884    7.0018 O.2     1  LIG1       -0.1260
@<TRIPOS>BOND
     1    31    15    2
     2     7     6    1
     3    15    30    2
     4    15     8    1
     5    24    14    2
     6     6     8    2
     7     6     5    1
     8     8     1    1
     9    25    26    1
    10    25    27    1
    11    14     5    1
    12    14    23    2
    13     5     3    1
    14     1    22    2
    15     1     2    1
    16     3     2    2
    17     3     4    1
    18     2    13    1
    19    10     9    1
    20    21    20    1
    21     9    20    1
    22     9    11    2
    23    20    16    1
    24    13    29    2
    25    13    28    2
    26    11    12    1
    27    11    18    1
    28    16    17    1
    29    16    18    1
    30    18    19    1
