@<TRIPOS>MOLECULE
Bis(3-hyroxypyridinium) 2,5-dichloro-3,6-dioxocyclohexa-1,4-diene-1,4-diolate
 19 18 0 0 0
SMALL
GASTEIGER

@<TRIPOS>ATOM
      1 CL          5.4413    6.3189    7.7087 Cl      1  LIG1       -0.0980
      2 O           8.0659    4.9702    7.7642 O.2     1  LIG1       -0.2865
      3 O           4.1469    5.2664    5.1622 O.2     1  LIG1       -0.2865
      4 O           2.3897    4.3962    3.4129 O.2     2  LIG2       -0.5092
      5 H           3.0684    4.5653    3.8995 H       2  LIG2        0.2917
      6 N           3.8949    6.0885    0.6205 N.pl3   2  LIG2       -0.3241
      7 H           4.6008    6.5983    0.4401 H       2  LIG2        0.1512
      8 C           7.3864    4.6840    6.7792 C.2     1  LIG1        0.2313
      9 C           6.0733    5.1999    6.5344 C.3     1  LIG1        0.2083
     10 C           5.3178    4.8481    5.4372 C.2     1  LIG1        0.2313
     11 C           3.7088    5.6579    1.8740 C.2     2  LIG2        0.0317
     12 H           4.3158    5.9113    2.5595 H       2  LIG2        0.0815
     13 C           2.6243    4.8382    2.1713 C.2     2  LIG2        0.1155
     14 C           1.7582    4.4823    1.1369 C.3     2  LIG2        0.0502
     15 H           1.0177    3.9127    1.3093 H       2  LIG2        0.0433
     16 C           1.9835    4.9644   -0.1450 C.2     2  LIG2       -0.0589
     17 H           1.3905    4.7350   -0.8508 H       2  LIG2        0.0592
     18 C           3.0721    5.7787   -0.3926 C.2     2  LIG2       -0.0099
     19 H           3.2353    6.1137   -1.2665 H       2  LIG2        0.0778
@<TRIPOS>BOND
     1    19    18    1
     2    17    16    1
     3    18    16    2
     4    18     6    1
     5    16    14    1
     6     7     6    1
     7     6    11    1
     8    14    15    1
     9    14    13    1
    10    11    13    2
    11    11    12    1
    12    13     4    1
    13     4     5    1
    14     3    10    2
    15    10     9    1
    16     9     8    1
    17     9     1    1
    18     8     2    2
