@<TRIPOS>MOLECULE
(<i>Z</i>)-1-[(2<i>E</i>)-3,4-Diphenyl-2,3-dihydro-1,3-thiazol-2-ylidene]-2-[1-(4-hydroxyphenyl)ethylidene]hydrazinium bromide
 49 51 0 0 0
SMALL
GASTEIGER

@<TRIPOS>ATOM
      1 S           4.2006   11.2209   12.6744 S.2     1  LIG1       -0.0600
      2 O           2.8213   18.5465   16.0981 O.3     1  LIG1       -0.5068
      3 N           3.7524   10.7618   10.2005 N.ar    1  LIG1       -0.2902
      4 N           2.9128   12.8251   10.9609 N.pl3   1  LIG1       -0.2161
      5 N           2.9308   13.6988   12.0487 N.2     1  LIG1       -0.1852
      6 C           4.7988    9.7540   11.9532 C.ar    1  LIG1        0.0034
      7 C           4.5071    9.6523   10.6590 C.ar    1  LIG1        0.0625
      8 C           3.5506   11.6765   11.1596 C.ar    1  LIG1        0.1633
      9 C           4.9261    8.6150    9.6986 C.ar    1  LIG1       -0.0006
     10 C           4.3022    7.3889    9.6668 C.ar    1  LIG1       -0.0526
     11 C           4.6869    6.4229    8.7509 C.ar    1  LIG1       -0.0611
     12 C           5.6852    6.6772    7.8758 C.ar    1  LIG1       -0.0617
     13 C           6.3181    7.8768    7.9089 C.ar    1  LIG1       -0.0611
     14 C           5.9502    8.8548    8.8082 C.ar    1  LIG1       -0.0526
     15 C           3.2750   10.9462    8.8426 C.ar    1  LIG1        0.0488
     16 C           2.2290   10.1559    8.3955 C.ar    1  LIG1       -0.0378
     17 C           1.7898   10.3379    7.1001 C.ar    1  LIG1       -0.0598
     18 C           2.3513   11.2789    6.2900 C.ar    1  LIG1       -0.0616
     19 C           3.3843   12.0557    6.7498 C.ar    1  LIG1       -0.0598
     20 C           3.8572   11.8781    8.0414 C.ar    1  LIG1       -0.0378
     21 C           2.5706   14.8966   11.7927 C.2     1  LIG1        0.0633
     22 C           2.1162   15.3481   10.4476 C.3     1  LIG1       -0.0203
     23 C           2.6450   15.8711   12.9226 C.ar    1  LIG1       -0.0023
     24 C           3.3656   15.5657   14.0639 C.ar    1  LIG1       -0.0494
     25 C           3.4144   16.4771   15.1262 C.ar    1  LIG1       -0.0196
     26 C           2.7371   17.6933   15.0230 C.ar    1  LIG1        0.1169
     27 C           2.0397   18.0029   13.8919 C.ar    1  LIG1       -0.0196
     28 C           1.9987   17.0978   12.8563 C.ar    1  LIG1       -0.0494
     29 BR          4.6138    4.3588    2.7991 Br      2  LIG2        0.0000
     30 H           5.2777    9.0998   12.4283 H       1  LIG1        0.0715
     31 H           2.3941   19.2390   15.9351 H       1  LIG1        0.2921
     32 H           2.3517   12.8398   10.2451 H       1  LIG1        0.1764
     33 H           3.6075    7.2057   10.2731 H       1  LIG1        0.0624
     34 H           4.2527    5.5886    8.7382 H       1  LIG1        0.0618
     35 H           5.9401    6.0272    7.2478 H       1  LIG1        0.0618
     36 H           7.0209    8.0434    7.3077 H       1  LIG1        0.0618
     37 H           6.3963    9.6818    8.8146 H       1  LIG1        0.0624
     38 H           1.8306    9.5163    8.9573 H       1  LIG1        0.0638
     39 H           1.0913    9.8026    6.7702 H       1  LIG1        0.0618
     40 H           2.0297   11.3966    5.4136 H       1  LIG1        0.0618
     41 H           3.7702   12.7046    6.1906 H       1  LIG1        0.0618
     42 H           4.5725   12.3981    8.3599 H       1  LIG1        0.0638
     43 H           2.0787   16.3167   10.4272 H       1  LIG1        0.0293
     44 H           1.2343   14.9858   10.2667 H       1  LIG1        0.0293
     45 H           2.7382   15.0326    9.7738 H       1  LIG1        0.0293
     46 H           3.8229   14.7472   14.1263 H       1  LIG1        0.0625
     47 H           3.8999   16.2709   15.9045 H       1  LIG1        0.0654
     48 H           1.5922   18.8260   13.8206 H       1  LIG1        0.0654
     49 H           1.5183   17.3187   12.0793 H       1  LIG1        0.0625
@<TRIPOS>BOND
     1    40    18    1
     2    41    19    1
     3    18    19   ar
     4    18    17   ar
     5    19    20   ar
     6    39    17    1
     7    17    16   ar
     8    35    12    1
     9    36    13    1
    10    12    13   ar
    11    12    11   ar
    12    13    14   ar
    13    20    42    1
    14    20    15   ar
    15    16    15   ar
    16    16    38    1
    17    34    11    1
    18    11    10   ar
    19    14    37    1
    20    14     9   ar
    21    15     3    1
    22    10     9   ar
    23    10    33    1
    24     9     7    1
    25    45    22    1
    26     3     7   ar
    27     3     8   ar
    28    32     4    1
    29    44    22    1
    30    43    22    1
    31    22    21    1
    32     7     6   ar
    33     4     8    1
    34     4     5    1
    35     8     1   ar
    36    21     5    2
    37    21    23    1
    38     6    30    1
    39     6     1   ar
    40    49    28    1
    41    28    23   ar
    42    28    27   ar
    43    23    24   ar
    44    48    27    1
    45    27    26   ar
    46    24    46    1
    47    24    25   ar
    48    26    25   ar
    49    26     2    1
    50    25    47    1
    51    31     2    1
