@<TRIPOS>MOLECULE
2311629.cif
 94 96 0 0 0
SMALL
GASTEIGER

@<TRIPOS>ATOM
      1 CL          0.8730   -3.3070   11.0041 Cl      1  LIG1       -0.0759
      2 O          -0.3211    2.4352   11.5784 O.3     1  LIG1       -0.4942
      3 O          -1.7944   -2.1415   10.9647 O.3     1  LIG1       -0.4934
      4 O           3.9005    0.2476    9.2405 O.2     1  LIG1       -0.4947
      5 O           2.7875   -1.0050   11.2773 O.3     1  LIG1       -0.4674
      6 O           2.7185    2.5215   11.7678 O.2     1  LIG1       -0.2870
      7 C           0.4718   -1.6369   11.1050 C.ar    1  LIG1        0.1250
      8 C          -1.1647    0.1742   11.2374 C.ar    1  LIG1        0.0242
      9 H          -2.0713    0.4585   11.2205 H       1  LIG1        0.0692
     10 C           1.4618   -0.6916   11.2374 C.ar    1  LIG1        0.1585
     11 C          -0.1409    1.1075   11.3954 C.ar    1  LIG1        0.1378
     12 C           4.4955    0.4799   10.4264 C.2     1  LIG1        0.1521
     13 C           4.2465    0.0094   12.8847 C.3     1  LIG1        0.0177
     14 H           4.7410   -0.8581   12.8210 H       1  LIG1        0.0350
     15 C           3.5236    0.2083   11.5627 C.3     1  LIG1        0.2313
     16 C           5.7313    0.9512   10.6302 C.2     1  LIG1        0.0228
     17 H           6.2992    1.0981    9.8830 H       1  LIG1        0.0687
     18 C          -0.8537   -1.1775   11.1048 C.ar    1  LIG1        0.1454
     19 C          -1.6638    2.9151   11.7124 C.3     1  LIG1        0.0788
     20 H          -2.1752    2.6820   10.9096 H       1  LIG1        0.0660
     21 H          -1.6529    3.8885   11.8212 H       1  LIG1        0.0660
     22 H          -2.0813    2.5018   12.4967 H       1  LIG1        0.0660
     23 C           1.1974    0.6703   11.3978 C.ar    1  LIG1        0.1068
     24 C           5.2816    1.0947   13.1244 C.3     1  LIG1        0.0170
     25 H           4.8208    1.9562   13.2816 H       1  LIG1        0.0349
     26 H           5.8025    0.8752   13.9379 H       1  LIG1        0.0349
     27 C          -3.1727   -1.7650   10.9716 C.3     1  LIG1        0.0789
     28 H          -3.3944   -1.3517   11.8327 H       1  LIG1        0.0660
     29 H          -3.7289   -2.5608   10.8386 H       1  LIG1        0.0660
     30 H          -3.3403   -1.1254   10.2495 H       1  LIG1        0.0660
     31 C           2.4515    1.3389   11.5945 C.2     1  LIG1        0.2213
     32 C           3.2738   -0.1144   14.0614 C.3     1  LIG1       -0.0575
     33 H           2.8368    0.7488   14.2161 H       1  LIG1        0.0234
     34 H           3.7673   -0.3791   14.8667 H       1  LIG1        0.0234
     35 H           2.5968   -0.7915   13.8553 H       1  LIG1        0.0234
     36 O           7.3707    1.6522   12.1323 O.2     1  LIG1       -0.2926
     37 C           6.2240    1.2415   11.9561 C.2     1  LIG1        0.1598
     38 C           4.6749    0.5499    8.0597 C.3     1  LIG1        0.0785
     39 H           4.9916    1.4763    8.1060 H       1  LIG1        0.0660
     40 H           4.1156    0.4355    7.2635 H       1  LIG1        0.0660
     41 H           5.4436   -0.0555    8.0100 H       1  LIG1        0.0660
     42 CL          2.0139   -2.9842   17.7529 Cl      2  LIG2       -0.0759
     43 O          -1.0016    0.5559   19.6138 O.2     2  LIG2       -0.4947
     44 O           4.6804   -1.8196   17.7888 O.3     2  LIG2       -0.4934
     45 O           0.1508    2.8502   17.1388 O.2     2  LIG2       -0.2870
     46 O           3.1945    2.7623   17.2465 O.3     2  LIG2       -0.4942
     47 O           0.0988   -0.6840   17.5545 O.3     2  LIG2       -0.4674
     48 C           4.0493    0.5089   17.5506 C.ar    2  LIG2        0.0242
     49 H           4.9550    0.7958   17.5552 H       2  LIG2        0.0692
     50 C           2.4142   -1.3107   17.6813 C.ar    2  LIG2        0.1250
     51 C          -0.6456    0.5345   17.2998 C.3     2  LIG2        0.2313
     52 C           1.4200   -0.3655   17.5783 C.ar    2  LIG2        0.1585
     53 C           4.5391    3.2396   17.0747 C.3     2  LIG2        0.0788
     54 H           5.0751    2.9937   17.8565 H       2  LIG2        0.0660
     55 H           4.5294    4.2147   16.9776 H       2  LIG2        0.0660
     56 H           4.9292    2.8357   16.2714 H       2  LIG2        0.0660
     57 C          -1.3652    0.3569   15.9584 C.3     2  LIG2        0.0177
     58 H          -1.8406   -0.5217   15.9970 H       2  LIG2        0.0350
     59 C           3.0267    1.4388   17.4155 C.ar    2  LIG2        0.1378
     60 C           6.0576   -1.4396   17.8139 C.3     2  LIG2        0.0789
     61 H           6.2892   -0.9956   16.9718 H       2  LIG2        0.0660
     62 H           6.6150   -2.2380   17.9256 H       2  LIG2        0.0660
     63 H           6.2132   -0.8248   18.5608 H       2  LIG2        0.0660
     64 C           3.7435   -0.8539   17.6796 C.ar    2  LIG2        0.1454
     65 C           1.6822    0.9982   17.4387 C.ar    2  LIG2        0.1068
     66 C          -2.8627    1.2210   18.2547 C.2     2  LIG2        0.0228
     67 H          -3.4244    1.3500   19.0098 H       2  LIG2        0.0687
     68 O          -4.5362    1.8760   16.7632 O.2     2  LIG2       -0.2926
     69 C          -1.6099    0.7710   18.4414 C.2     2  LIG2        0.1521
     70 C          -2.4274    1.4294   15.7625 C.3     2  LIG2        0.0170
     71 H          -1.9844    2.3063   15.6400 H       2  LIG2        0.0349
     72 H          -2.9414    1.2304   14.9396 H       2  LIG2        0.0349
     73 C           0.4230    1.6685   17.2785 C.2     2  LIG2        0.2213
     74 C          -0.3900    0.2852   14.7795 C.3     2  LIG2       -0.0575
     75 H          -0.8811    0.0564   13.9628 H       2  LIG2        0.0234
     76 H           0.2865   -0.4013   14.9569 H       2  LIG2        0.0234
     77 H           0.0486    1.1536   14.6652 H       2  LIG2        0.0234
     78 C          -1.7572    0.8334   20.8064 C.3     2  LIG2        0.0785
     79 H          -2.0942    1.7530   20.7734 H       2  LIG2        0.0660
     80 H          -1.1790    0.7258   21.5909 H       2  LIG2        0.0660
     81 H          -2.5107    0.2109   20.8675 H       2  LIG2        0.0660
     82 C          -3.3803    1.5173   16.9306 C.2     2  LIG2        0.1598
     83 C           0.1388    4.8713   14.5028 C.1     1  LIG1        0.0591
     84 C           1.4608    4.3103   14.4036 C.3     1  LIG1        0.0232
     85 H           1.4913    3.6751   13.6577 H       1  LIG1        0.0382
     86 H           1.6814    3.8458   15.2370 H       1  LIG1        0.0382
     87 H           2.1087    5.0284   14.2487 H       1  LIG1        0.0382
     88 N          -0.9355    5.3170   14.5556 N.1     1  LIG1       -0.1969
     89 C           2.2853   -0.1409    4.8801 C.3     2  LIG2        0.0232
     90 H           2.7879   -0.6421    4.2046 H       2  LIG2        0.0382
     91 H           1.3260   -0.2092    4.6920 H       2  LIG2        0.0382
     92 H           2.4707   -0.5132    5.7686 H       2  LIG2        0.0382
     93 C           2.7073    1.3201    4.8455 C.1     2  LIG2        0.0591
     94 N           3.1841    2.2909    4.7937 N.1     2  LIG2       -0.1969
@<TRIPOS>BOND
     1    90    89    1
     2    91    89    1
     3    94    93    3
     4    93    89    1
     5    89    92    1
     6    40    38    1
     7    41    38    1
     8    38    39    1
     9    38     4    1
    10     4    12    1
    11    17    16    1
    12    30    27    1
    13    12    16    2
    14    12    15    1
    15    16    37    1
    16    29    27    1
    17    20    19    1
    18     3    27    1
    19     3    18    1
    20    27    28    1
    21     1     7    1
    22    18     7   ar
    23    18     8   ar
    24     7    10   ar
    25     9     8    1
    26     8    11   ar
    27    10     5    1
    28    10    23   ar
    29     5    15    1
    30    11    23   ar
    31    11     2    1
    32    23    31    1
    33    15    31    1
    34    15    13    1
    35     2    19    1
    36    31     6    2
    37    19    21    1
    38    19    22    1
    39    37    36    2
    40    37    24    1
    41    14    13    1
    42    13    24    1
    43    13    32    1
    44    24    25    1
    45    24    26    1
    46    85    84    1
    47    35    32    1
    48    75    74    1
    49    32    33    1
    50    32    34    1
    51    87    84    1
    52    84    83    1
    53    84    86    1
    54    83    88    3
    55    77    74    1
    56    74    76    1
    57    74    57    1
    58    72    70    1
    59    71    70    1
    60    70    57    1
    61    70    82    1
    62    57    58    1
    63    57    51    1
    64    56    53    1
    65    68    82    2
    66    82    66    1
    67    61    60    1
    68    55    53    1
    69    53    46    1
    70    53    54    1
    71    45    73    2
    72    46    59    1
    73    73    51    1
    74    73    65    1
    75    51    47    1
    76    51    69    1
    77    59    65   ar
    78    59    48   ar
    79    65    52   ar
    80    48    49    1
    81    48    64   ar
    82    47    52    1
    83    52    50   ar
    84    64    50   ar
    85    64    44    1
    86    50    42    1
    87    44    60    1
    88    60    62    1
    89    60    63    1
    90    66    69    2
    91    66    67    1
    92    69    43    1
    93    43    78    1
    94    79    78    1
    95    78    81    1
    96    78    80    1
