@<TRIPOS>MOLECULE
(<i>E</i>)-1-{3-[(2-Hydroxy-3-methoxybenzylidene)amino]phenyl}ethanone
 70 72 0 0 0
SMALL
GASTEIGER

@<TRIPOS>ATOM
      1 N          14.0620    1.6859   10.4111 N.2     1  LIG1       -0.2548
      2 C          13.0092    2.6138   10.2836 C.ar    1  LIG1        0.0645
      3 C          12.2416    2.7830    9.1361 C.ar    1  LIG1       -0.0258
      4 H          12.3836    2.2256    8.4061 H       1  LIG1        0.0646
      5 C          11.2724    3.7653    9.0641 C.ar    1  LIG1        0.0191
      6 C          11.0575    4.6034   10.1603 C.ar    1  LIG1       -0.0511
      7 H          10.4223    5.2814   10.1144 H       1  LIG1        0.0625
      8 C          11.7925    4.4182   11.3123 C.ar    1  LIG1       -0.0591
      9 H          11.6409    4.9633   12.0512 H       1  LIG1        0.0618
     10 C          12.7443    3.4364   11.3747 C.ar    1  LIG1       -0.0363
     11 H          13.2241    3.3163   12.1627 H       1  LIG1        0.0639
     12 C          10.4837    3.8875    7.8035 C.2     1  LIG1        0.1602
     13 O          10.6169    3.0665    6.9116 O.2     1  LIG1       -0.2924
     14 C           9.5280    5.0225    7.6345 C.3     1  LIG1       -0.0014
     15 H           9.0982    4.9542    6.7801 H       1  LIG1        0.0309
     16 H          10.0059    5.8537    7.6861 H       1  LIG1        0.0309
     17 H           8.8660    4.9894    8.3290 H       1  LIG1        0.0309
     18 C          14.3237    0.8232    9.5052 C.2     1  LIG1        0.0390
     19 H          13.7883    0.8002    8.7461 H       1  LIG1        0.0837
     20 C          15.4099   -0.1121    9.6106 C.ar    1  LIG1        0.0381
     21 C          16.2312   -0.1473   10.7493 C.ar    1  LIG1        0.1672
     22 C          17.2253   -1.1312   10.8622 C.ar    1  LIG1        0.1619
     23 C          17.4019   -2.0409    9.8394 C.ar    1  LIG1       -0.0163
     24 H          18.0524   -2.7008    9.9178 H       1  LIG1        0.0655
     25 C          16.6189   -1.9833    8.6930 C.ar    1  LIG1       -0.0575
     26 H          16.7667   -2.5855    7.9996 H       1  LIG1        0.0619
     27 C          15.6306   -1.0416    8.5835 C.ar    1  LIG1       -0.0494
     28 H          15.1028   -1.0175    7.8189 H       1  LIG1        0.0625
     29 O          16.0833    0.7383   11.7525 O.3     1  LIG1       -0.5029
     30 H          15.3139    1.4254   11.5039 H       1  LIG1        0.2923
     31 O          17.9457   -1.0939   12.0190 O.3     1  LIG1       -0.4914
     32 C          18.8987   -2.1205   12.2106 C.3     1  LIG1        0.0790
     33 H          18.4612   -2.9741   12.1760 H       1  LIG1        0.0660
     34 H          19.3209   -2.0100   13.0634 H       1  LIG1        0.0660
     35 H          19.5608   -2.0746   11.5171 H       1  LIG1        0.0660
     36 N           9.4204   -0.9994    2.8457 N.2     2  LIG2       -0.2548
     37 C          10.4703   -0.0448    2.9902 C.ar    2  LIG2        0.0645
     38 C          11.2350    0.1014    4.1366 C.ar    2  LIG2       -0.0258
     39 H          11.0940   -0.4666    4.8593 H       2  LIG2        0.0646
     40 C          12.2109    1.0917    4.2152 C.ar    2  LIG2        0.0191
     41 C          12.4181    1.9256    3.1353 C.ar    2  LIG2       -0.0511
     42 H          13.0552    2.6025    3.1855 H       2  LIG2        0.0625
     43 C          11.6812    1.7543    1.9798 C.ar    2  LIG2       -0.0591
     44 H          11.8405    2.3004    1.2434 H       2  LIG2        0.0618
     45 C          10.7121    0.7784    1.9113 C.ar    2  LIG2       -0.0363
     46 H          10.2170    0.6737    1.1318 H       2  LIG2        0.0639
     47 C          12.9957    1.2001    5.4847 C.2     2  LIG2        0.1602
     48 O          12.8693    0.3710    6.3582 O.2     2  LIG2       -0.2924
     49 C          13.9610    2.3330    5.6542 C.3     2  LIG2       -0.0014
     50 H          13.4774    3.1626    5.6802 H       2  LIG2        0.0309
     51 H          14.5751    2.3436    4.9177 H       2  LIG2        0.0309
     52 H          14.4465    2.2198    6.4746 H       2  LIG2        0.0309
     53 C           9.1519   -1.8429    3.7763 C.2     2  LIG2        0.0390
     54 H           9.6662   -1.8317    4.5511 H       2  LIG2        0.0837
     55 C           8.0830   -2.8075    3.6677 C.ar    2  LIG2        0.0381
     56 C           7.2770   -2.8652    2.5290 C.ar    2  LIG2        0.1672
     57 C           6.2733   -3.8400    2.4503 C.ar    2  LIG2        0.1619
     58 C           6.1025   -4.7284    3.4828 C.ar    2  LIG2       -0.0163
     59 H           5.4539   -5.3909    3.4166 H       2  LIG2        0.0655
     60 C           6.8855   -4.6488    4.6207 C.ar    2  LIG2       -0.0575
     61 H           6.7493   -5.2494    5.3189 H       2  LIG2        0.0619
     62 C           7.8527   -3.6975    4.7261 C.ar    2  LIG2       -0.0494
     63 H           8.3632   -3.6372    5.5022 H       2  LIG2        0.0625
     64 O           7.4434   -2.0116    1.4878 O.3     2  LIG2       -0.5029
     65 H           8.1559   -1.4628    1.6738 H       2  LIG2        0.2923
     66 O           5.5447   -3.8053    1.2925 O.3     2  LIG2       -0.4914
     67 C           4.5616   -4.8325    1.1265 C.3     2  LIG2        0.0790
     68 H           4.9953   -5.6882    1.0893 H       2  LIG2        0.0660
     69 H           4.0780   -4.6841    0.3108 H       2  LIG2        0.0660
     70 H           3.9513   -4.8143    1.8677 H       2  LIG2        0.0660
@<TRIPOS>BOND
     1    69    67    1
     2    68    67    1
     3    67    66    1
     4    67    70    1
     5    46    45    1
     6    44    43    1
     7    66    57    1
     8    64    65    1
     9    64    56    1
    10    45    43   ar
    11    45    37   ar
    12    43    41   ar
    13    57    56   ar
    14    57    58   ar
    15    56    55   ar
    16    36    37    1
    17    36    53    2
    18    37    38   ar
    19    41    42    1
    20    41    40   ar
    21    59    58    1
    22    58    60   ar
    23    55    53    1
    24    55    62   ar
    25    53    54    1
    26    38    40   ar
    27    38    39    1
    28    40    47    1
    29    60    62   ar
    30    60    61    1
    31    62    63    1
    32    51    49    1
    33    47    49    1
    34    47    48    2
    35    49    50    1
    36    49    52    1
    37    15    14    1
    38    13    12    2
    39    14    16    1
    40    14    12    1
    41    14    17    1
    42    12     5    1
    43    28    27    1
    44    26    25    1
    45     4     3    1
    46    27    25   ar
    47    27    20   ar
    48    25    23   ar
    49    19    18    1
    50     5     3   ar
    51     5     6   ar
    52     3     2   ar
    53    18    20    1
    54    18     1    2
    55    20    21   ar
    56    23    24    1
    57    23    22   ar
    58     7     6    1
    59     6     8   ar
    60     2     1    1
    61     2    10   ar
    62    21    22   ar
    63    21    29    1
    64    22    31    1
    65     8    10   ar
    66     8     9    1
    67    10    11    1
    68    30    29    1
    69    35    32    1
    70    31    32    1
    71    33    32    1
    72    32    34    1
