@<TRIPOS>MOLECULE
C6 H10 N3 O2, H3 O4 P, H2 O4 P
 36 34 0 0 0
SMALL
GASTEIGER

@<TRIPOS>ATOM
      1 P           2.2564    0.9826    8.1279 P.3     1  LIG1        0.2073
      2 O           2.0125    1.0970    6.6426 O.2     1  LIG1       -0.5174
      3 O           1.4798    2.0032    8.9387 O.3     1  LIG1       -0.4376
      4 O           1.8813   -0.4110    8.6931 O.3     1  LIG1       -0.3437
      5 O           3.7786    1.1904    8.3712 O.3     1  LIG1       -0.3437
      6 P           3.5289    2.7147    3.8679 P.3     2  LIG2        0.4698
      7 O           2.1174    2.7673    3.4046 O.2     2  LIG2       -0.2277
      8 O           3.6918    2.5519    5.3921 O.3     2  LIG2       -0.3027
      9 O           4.3077    1.5171    3.2404 O.3     2  LIG2       -0.3027
     10 O           4.3370    4.0036    3.5861 O.3     2  LIG2       -0.3027
     11 O           7.0978    7.5578    5.4657 O.co2   1  HIS1       -0.2400
     12 OXT         7.5775    5.3854    5.5345 O.co2   1  HIS1       -0.2400
     13 C           7.2168    6.4396    4.9518 C.2     1  HIS1        0.4030
     14 N           6.0043    7.4591    3.0882 N.4     1  HIS1        0.2292
     15 CA          6.8804    6.3166    3.4609 C.3     1  HIS1        0.0838
     16 CB          8.1703    6.3376    2.6258 C.3     1  HIS1        0.0400
     17 CG          7.9486    6.0512    1.1799 C.2     1  HIS1        0.0249
     18 ND1         7.6963    4.7791    0.7022 N.pl3   1  HIS1       -0.3254
     19 CE1         7.5365    4.8282   -0.6182 C.3     1  HIS1        0.1202
     20 NE2         7.6802    6.0850   -1.0123 N.pl3   1  HIS1       -0.3279
     21 CD2         7.9331    6.8692    0.0954 C.2     1  HIS1        0.0081
     22 H1          5.6797    7.4286    2.1091 H       1  HIS1        0.2003
     23 H2          5.1920    7.5227    3.7215 H       1  HIS1        0.2003
     24 H3          6.5313    8.3429    3.1669 H       1  HIS1        0.2003
     25 HA          6.3180    5.3853    3.3050 H       1  HIS1        0.0973
     26 HB1         8.8863    5.6083    3.0301 H       1  HIS1        0.0387
     27 HB2         8.6773    7.3076    2.7256 H       1  HIS1        0.0387
     28 HD1         7.6890    3.9569    1.2872 H       1  HIS1        0.1477
     29 HE1         7.3154    4.0108   -1.2837 H       1  HIS1        0.0742
     30 HE2         7.5239    6.4757   -1.9293 H       1  HIS1        0.1474
     31 HD2         8.0680    7.9352    0.0213 H       1  HIS1        0.0794
     32 H           1.6383   -1.1623    8.1299 H       1  LIG1        0.2176
     33 H           4.0408    1.1449    9.3040 H       1  LIG1        0.2176
     34 H           3.0508    1.9923    5.8579 H       2  LIG2        0.2220
     35 H           4.4886    1.6574    2.2978 H       2  LIG2        0.2220
     36 H           4.1596    4.5024    2.7733 H       2  LIG2        0.2220
@<TRIPOS>BOND
     1    30    20    1
     2    29    19    1
     3    20    19    1
     4    20    21    1
     5    19    18    1
     6    31    21    1
     7    21    17    2
     8    18    17    1
     9    18    28    1
    10    17    16    1
    11    22    14    1
    12    35     9    1
    13    16    27    1
    14    16    26    1
    15    16    15    1
    16    36    10    1
    17    14    24    1
    18    14    15    1
    19    14    23    1
    20     9     6    1
    21    25    15    1
    22     7     6    2
    23    15    13    1
    24    10     6    1
    25     6     8    1
    26    13    11   ar
    27    13    12   ar
    28     8    34    1
    29     2     1    2
    30     1     5    1
    31     1     4    1
    32     1     3    1
    33    32     4    1
    34     5    33    1
