@<TRIPOS>MOLECULE
1-Butanaminium, N,N,N-tributyl-, chloride, hydrate (1:1)
 114 108 0 0 0
SMALL
GASTEIGER

@<TRIPOS>ATOM
      1 CL          9.3515    9.1224   11.0218 Cl      1  LIG1        0.0000
      2 CL          8.2808    8.0084    5.6844 Cl      2  LIG2        0.0000
      3 O           7.4847    9.9215    8.1486 O.3     3  HOH3       -0.4105
      4 O          10.2194    7.5387    8.3860 O.3     4  HOH4       -0.4105
      5 N           4.8372    8.9417   11.7219 N.4     5  LIG5        0.2433
      6 C           5.7605   10.1461   11.5392 C.3     5  LIG5       -0.0301
      7 H           5.7598   10.6666   12.3815 H       5  LIG5        0.0815
      8 H           6.6816    9.8111   11.4001 H       5  LIG5        0.0815
      9 C           5.4226   11.0874   10.4017 C.3     5  LIG5       -0.0127
     10 H           4.5235   11.4767   10.5433 H       5  LIG5        0.0317
     11 H           5.4142   10.5903    9.5455 H       5  LIG5        0.0317
     12 C           6.4642   12.1987   10.3443 C.3     5  LIG5       -0.0511
     13 H           6.4070   12.7390   11.1718 H       5  LIG5        0.0264
     14 H           7.3672   11.7943   10.3081 H       5  LIG5        0.0264
     15 C           6.2799   13.1092    9.1435 C.3     5  LIG5       -0.0651
     16 H           6.3658   12.5850    8.3198 H       5  LIG5        0.0230
     17 H           6.9642   13.8105    9.1572 H       5  LIG5        0.0230
     18 H           5.3907   13.5196    9.1782 H       5  LIG5        0.0230
     19 C           4.9148    8.0051   10.5213 C.3     5  LIG5       -0.0301
     20 H           4.1425    7.3872   10.5601 H       5  LIG5        0.0815
     21 H           4.8180    8.5477    9.6988 H       5  LIG5        0.0815
     22 C           6.1824    7.1744   10.3963 C.3     5  LIG5       -0.0127
     23 H           6.2174    6.5031   11.1230 H       5  LIG5        0.0317
     24 H           6.9771    7.7596   10.4756 H       5  LIG5        0.0317
     25 C           6.1894    6.4708    9.0388 C.3     5  LIG5       -0.0511
     26 H           5.3210    6.0135    8.9093 H       5  LIG5        0.0264
     27 H           6.2824    7.1504    8.3249 H       5  LIG5        0.0264
     28 C           7.3102    5.4514    8.8994 C.3     5  LIG5       -0.0651
     29 H           7.2853    5.0593    8.0016 H       5  LIG5        0.0230
     30 H           7.1938    4.7445    9.5680 H       5  LIG5        0.0230
     31 H           8.1735    5.8939    9.0387 H       5  LIG5        0.0230
     32 C           5.3055    8.2502   12.9833 C.3     5  LIG5       -0.0301
     33 H           5.3100    8.9140   13.7177 H       5  LIG5        0.0815
     34 H           6.2402    7.9543   12.8462 H       5  LIG5        0.0815
     35 C           4.4863    7.0499   13.4307 C.3     5  LIG5       -0.0127
     36 H           4.4010    6.4024   12.6866 H       5  LIG5        0.0317
     37 H           3.5780    7.3406   13.6964 H       5  LIG5        0.0317
     38 C           5.1888    6.3943   14.6124 C.3     5  LIG5       -0.0511
     39 H           6.0631    6.0427   14.3089 H       5  LIG5        0.0264
     40 H           5.3644    7.0830   15.3014 H       5  LIG5        0.0264
     41 C           4.3979    5.2622   15.2423 C.3     5  LIG5       -0.0651
     42 H           4.2691    4.5479   14.5838 H       5  LIG5        0.0230
     43 H           3.5250    5.5973   15.5357 H       5  LIG5        0.0230
     44 H           4.8891    4.9105   16.0139 H       5  LIG5        0.0230
     45 C           3.3842    9.3614   11.8428 C.3     5  LIG5       -0.0301
     46 H           3.1121    9.7958   10.9959 H       5  LIG5        0.0815
     47 H           2.8310    8.5476   11.9509 H       5  LIG5        0.0815
     48 C           3.0761   10.3066   12.9875 C.3     5  LIG5       -0.0127
     49 H           3.5801   11.1498   12.8644 H       5  LIG5        0.0317
     50 H           3.3662    9.8974   13.8410 H       5  LIG5        0.0317
     51 C           1.5809   10.6115   13.0511 C.3     5  LIG5       -0.0511
     52 H           1.4310   11.3324   13.7128 H       5  LIG5        0.0264
     53 H           1.2871   10.9488   12.1679 H       5  LIG5        0.0264
     54 C           0.7194    9.4125   13.4289 C.3     5  LIG5       -0.0651
     55 H           0.8018    8.7209   12.7396 H       5  LIG5        0.0230
     56 H          -0.2169    9.6927   13.5005 H       5  LIG5        0.0230
     57 H           1.0196    9.0530   14.2899 H       5  LIG5        0.0230
     58 N          13.1743    8.2043    4.9022 N.4     6  LIG6        0.2433
     59 C          12.9922    6.9719    5.7778 C.3     6  LIG6       -0.0301
     60 H          13.7164    6.3299    5.5693 H       6  LIG6        0.0815
     61 H          13.0978    7.2419    6.7244 H       6  LIG6        0.0815
     62 C          11.6639    6.2603    5.6284 C.3     6  LIG6       -0.0127
     63 H          11.5964    5.8674    4.7222 H       6  LIG6        0.0317
     64 H          10.9241    6.9086    5.7398 H       6  LIG6        0.0317
     65 C          11.5442    5.1622    6.6729 C.3     6  LIG6       -0.0511
     66 H          11.6697    5.5525    7.5740 H       6  LIG6        0.0264
     67 H          12.2593    4.4931    6.5278 H       6  LIG6        0.0264
     68 C          10.1894    4.4729    6.6072 C.3     6  LIG6       -0.0651
     69 H          10.1073    3.8421    7.3527 H       6  LIG6        0.0230
     70 H          10.1100    3.9885    5.7591 H       6  LIG6        0.0230
     71 H           9.4780    5.1443    6.6678 H       6  LIG6        0.0230
     72 C          12.1321    9.2749    5.2179 C.3     6  LIG6       -0.0301
     73 H          12.2858   10.0462    4.6166 H       6  LIG6        0.0815
     74 H          11.2363    8.9092    5.0082 H       6  LIG6        0.0815
     75 C          12.1190    9.7783    6.6444 C.3     6  LIG6       -0.0127
     76 H          13.0014   10.1651    6.8719 H       6  LIG6        0.0317
     77 H          11.9406    9.0269    7.2637 H       6  LIG6        0.0317
     78 C          11.0335   10.8415    6.7941 C.3     6  LIG6       -0.0511
     79 H          11.2216   11.5866    6.1700 H       6  LIG6        0.0264
     80 H          10.1595   10.4496    6.5440 H       6  LIG6        0.0264
     81 C          10.9468   11.3878    8.2092 C.3     6  LIG6       -0.0651
     82 H          10.7678   10.6532    8.8326 H       6  LIG6        0.0230
     83 H          10.2218   12.0450    8.2617 H       6  LIG6        0.0230
     84 H          11.7952   11.8177    8.4459 H       6  LIG6        0.0230
     85 C          14.5858    8.7011    5.1632 C.3     6  LIG6       -0.0301
     86 H          15.2219    7.9756    4.9409 H       6  LIG6        0.0815
     87 H          14.6789    8.8942    6.1296 H       6  LIG6        0.0815
     88 C          14.9764    9.9448    4.3804 C.3     6  LIG6       -0.0127
     89 H          14.4645   10.7232    4.7151 H       6  LIG6        0.0317
     90 H          14.7561    9.8189    3.4235 H       6  LIG6        0.0317
     91 C          16.4737   10.2107    4.5321 C.3     6  LIG6       -0.0511
     92 H          16.6753   11.1147    4.1825 H       6  LIG6        0.0264
     93 H          16.7043   10.2019    5.4949 H       6  LIG6        0.0264
     94 C          17.3445    9.2009    3.8106 C.3     6  LIG6       -0.0651
     95 H          17.2030    8.3118    4.1979 H       6  LIG6        0.0230
     96 H          18.2864    9.4533    3.9077 H       6  LIG6        0.0230
     97 H          17.1068    9.1847    2.8601 H       6  LIG6        0.0230
     98 C          12.9978    7.8502    3.4419 C.3     6  LIG6       -0.0301
     99 H          12.9900    8.6889    2.9157 H       6  LIG6        0.0815
    100 H          12.1131    7.4206    3.3291 H       6  LIG6        0.0815
    101 C          14.0529    6.9316    2.8614 C.3     6  LIG6       -0.0127
    102 H          14.9128    7.4173    2.7923 H       6  LIG6        0.0317
    103 H          14.1850    6.1572    3.4639 H       6  LIG6        0.0317
    104 C          13.6373    6.4415    1.4914 C.3     6  LIG6       -0.0511
    105 H          12.8681    5.8259    1.5885 H       6  LIG6        0.0264
    106 H          13.3399    7.2142    0.9487 H       6  LIG6        0.0264
    107 C          14.7457    5.7307    0.7662 C.3     6  LIG6       -0.0651
    108 H          15.0449    4.9639    1.2981 H       6  LIG6        0.0230
    109 H          15.4955    6.3470    0.6310 H       6  LIG6        0.0230
    110 H          14.4191    5.4178   -0.1031 H       6  LIG6        0.0230
    111 H           9.8916    7.9775    9.0075 H       0  HOH0        0.2052
    112 H           9.6204    7.6911    7.7383 H       0  HOH0        0.2052
    113 H           7.6582    9.3920    7.5552 H       0  HOH0        0.2052
    114 H           8.0880    9.7643    8.7368 H       0  HOH0        0.2052
@<TRIPOS>BOND
     1   110   107    1
     2   109   107    1
     3   107   108    1
     4   107   104    1
     5   106   104    1
     6   104   105    1
     7   104   101    1
     8   102   101    1
     9    97    94    1
    10   101    98    1
    11   101   103    1
    12    99    98    1
    13   100    98    1
    14    90    88    1
    15    98    58    1
    16    94    96    1
    17    94    95    1
    18    94    91    1
    19    92    91    1
    20    88    91    1
    21    88    89    1
    22    88    85    1
    23    91    93    1
    24    73    72    1
    25    63    62    1
    26    58    85    1
    27    58    72    1
    28    58    59    1
    29    86    85    1
    30    74    72    1
    31    85    87    1
    32    72    75    1
    33    60    59    1
    34    62    64    1
    35    62    59    1
    36    62    65    1
    37    70    68    1
    38    59    61    1
    39    79    78    1
    40    67    65    1
    41    80    78    1
    42    68    71    1
    43    68    65    1
    44    68    69    1
    45    75    78    1
    46    75    76    1
    47    75    77    1
    48    65    66    1
    49    78    81    1
    50   113     3    1
    51   112     4    1
    52    29    28    1
    53     3   114    1
    54    81    83    1
    55    81    84    1
    56    81    82    1
    57    16    15    1
    58    27    25    1
    59     4   111    1
    60    28    31    1
    61    28    25    1
    62    28    30    1
    63    26    25    1
    64    25    22    1
    65    15    17    1
    66    15    18    1
    67    15    12    1
    68    11     9    1
    69    21    19    1
    70    14    12    1
    71    12     9    1
    72    12    13    1
    73    22    24    1
    74    22    19    1
    75    22    23    1
    76     9    10    1
    77     9     6    1
    78    19    20    1
    79    19     5    1
    80    46    45    1
    81     8     6    1
    82     6     5    1
    83     6     7    1
    84     5    45    1
    85     5    32    1
    86    45    47    1
    87    45    48    1
    88    53    51    1
    89    36    35    1
    90    55    54    1
    91    34    32    1
    92    49    48    1
    93    32    35    1
    94    32    33    1
    95    48    51    1
    96    48    50    1
    97    51    54    1
    98    51    52    1
    99    54    56    1
   100    54    57    1
   101    35    37    1
   102    35    38    1
   103    39    38    1
   104    42    41    1
   105    38    41    1
   106    38    40    1
   107    41    43    1
   108    41    44    1
