@<TRIPOS>MOLECULE
4003363.cif
 33 34 0 0 0
SMALL
GASTEIGER

@<TRIPOS>ATOM
      1 C           0.5261    7.6985    3.0786 C.3     1  LIG1       -0.0652
      2 H           0.6955    7.5562    2.1446 H       1  LIG1        0.0230
      3 H           0.4432    8.6396    3.2483 H       1  LIG1        0.0230
      4 H          -0.2877    7.2554    3.3278 H       1  LIG1        0.0230
      5 C           1.6700    7.1414    3.8880 C.3     1  LIG1       -0.0545
      6 H           1.4748    7.2682    4.8298 H       1  LIG1        0.0263
      7 H           2.4709    7.6488    3.6839 H       1  LIG1        0.0263
      8 C           1.9506    5.6766    3.6457 C.3     1  LIG1       -0.0375
      9 H           2.1612    5.5463    2.7078 H       1  LIG1        0.0280
     10 H           1.1506    5.1649    3.8429 H       1  LIG1        0.0280
     11 C           3.0956    5.1452    4.4862 C.3     1  LIG1        0.0119
     12 H           3.9105    5.6003    4.2235 H       1  LIG1        0.0463
     13 H           2.9243    5.3629    5.4155 H       1  LIG1        0.0463
     14 C           2.3674    2.8679    5.0996 C.3     1  LIG1        0.0007
     15 H           1.7906    2.4222    4.4757 H       1  LIG1        0.0428
     16 H           1.8408    3.4138    5.6893 H       1  LIG1        0.0428
     17 H           2.8486    2.2156    5.6127 H       1  LIG1        0.0428
     18 C           4.1232    3.1464    3.4098 C.ar    1  LIG1        0.0301
     19 C           4.8491    3.9255    2.4794 C.ar    1  LIG1       -0.0401
     20 H           4.7459    4.8495    2.4890 H       1  LIG1        0.0636
     21 C           5.7121    3.3573    1.5519 C.ar    1  LIG1       -0.0516
     22 H           6.1775    3.9007    0.9566 H       1  LIG1        0.0624
     23 C           5.8821    1.9825    1.5113 C.ar    1  LIG1       -0.0060
     24 C           6.6910    1.0842    0.6480 C.2     1  LIG1       -0.0020
     25 C           6.4094   -0.2473    1.0066 C.2     1  LIG1        0.0124
     26 C           5.4420   -0.2357    2.1438 C.2     1  LIG1        0.1907
     27 C           5.1453    1.2041    2.4096 C.ar    1  LIG1        0.0314
     28 C           4.2854    1.7442    3.3405 C.ar    1  LIG1       -0.0293
     29 H           3.8149    1.1897    3.9194 H       1  LIG1        0.0643
     30 C           6.9831   -1.3407    0.3772 C.3     1  LIG1        0.0034
     31 H           6.7716   -2.2105    0.6299 H       1  LIG1        0.0362
     32 N           3.3084    3.7064    4.3758 N.pl3   1  LIG1       -0.3329
     33 O           4.9906   -1.2022    2.7347 O.2     1  LIG1       -0.2869
@<TRIPOS>BOND
     1    30    31    1
     2    30    25    1
     3    24    25    2
     4    24    23    1
     5    22    21    1
     6    25    26    1
     7    23    21   ar
     8    23    27   ar
     9    21    19   ar
    10    26    27    1
    11    26    33    2
    12     2     1    1
    13    27    28   ar
    14    19    20    1
    15    19    18   ar
    16     9     8    1
    17     1     3    1
    18     1     4    1
    19     1     5    1
    20    28    18   ar
    21    28    29    1
    22    18    32    1
    23     8    10    1
    24     8     5    1
    25     8    11    1
    26     7     5    1
    27     5     6    1
    28    12    11    1
    29    32    11    1
    30    32    14    1
    31    15    14    1
    32    11    13    1
    33    14    17    1
    34    14    16    1
