@<TRIPOS>MOLECULE
?
 52 54 0 0 0
SMALL
GASTEIGER

@<TRIPOS>ATOM
      1 C           9.9801   17.0381    3.3798 C.3     1  LIG1        0.0817
      2 H           9.3253   17.6552    3.7161 H       1  LIG1        0.0661
      3 H          10.5548   17.4879    2.7571 H       1  LIG1        0.0661
      4 H          10.5028   16.6980    4.1113 H       1  LIG1        0.0661
      5 C           8.6614   15.1316    3.4601 C.2     1  LIG1        0.3071
      6 C           8.0501   14.0105    2.6903 C.3     1  LIG1        0.0478
      7 H           8.7306   13.6375    2.1091 H       1  LIG1        0.0380
      8 H           7.3541   14.3778    2.1221 H       1  LIG1        0.0380
      9 C           7.4542   12.8871    3.4993 C.3     1  LIG1       -0.0280
     10 H           8.1313   12.5797    4.1372 H       1  LIG1        0.0307
     11 C           7.0853   11.7151    2.6012 C.3     1  LIG1       -0.0282
     12 H           7.8808   11.4292    2.1253 H       1  LIG1        0.0287
     13 H           6.4449   12.0225    1.9406 H       1  LIG1        0.0287
     14 C           6.4912   10.5059    3.3279 C.3     1  LIG1        0.0570
     15 H           7.1820   10.1284    3.9105 H       1  LIG1        0.0529
     16 C           5.7060   12.0994    5.0693 C.3     1  LIG1        0.0214
     17 H           4.9277   12.3729    5.5790 H       1  LIG1        0.0444
     18 H           6.3905   11.8168    5.6956 H       1  LIG1        0.0444
     19 C           6.2133   13.2668    4.2782 C.3     1  LIG1       -0.0351
     20 H           6.4197   14.0003    4.8792 H       1  LIG1        0.0281
     21 H           5.5242   13.5663    3.6642 H       1  LIG1        0.0281
     22 C           6.1355    9.4661    2.2743 C.ar    1  LIG1       -0.0286
     23 C           5.0335    9.6074    1.4514 C.ar    1  LIG1       -0.0570
     24 H           4.4508   10.3194    1.5843 H       1  LIG1        0.0621
     25 C           4.7870    8.7022    0.4345 C.ar    1  LIG1       -0.0615
     26 H           4.0396    8.8027   -0.1102 H       1  LIG1        0.0618
     27 C           5.6523    7.6556    0.2352 C.ar    1  LIG1       -0.0617
     28 H           5.4893    7.0454   -0.4471 H       1  LIG1        0.0618
     29 C           6.7491    7.5053    1.0296 C.ar    1  LIG1       -0.0615
     30 H           7.3335    6.7956    0.8877 H       1  LIG1        0.0618
     31 C           6.9881    8.4128    2.0469 C.ar    1  LIG1       -0.0570
     32 H           7.7384    8.3077    2.5854 H       1  LIG1        0.0621
     33 C           5.7186    9.0367    6.1206 C.ar    1  LIG1        0.1055
     34 C           6.4340    7.9337    5.6969 C.ar    1  LIG1       -0.0351
     35 H           6.2499    7.5494    4.8694 H       1  LIG1        0.0637
     36 C           7.4370    7.3946    6.5114 C.ar    1  LIG1       -0.0570
     37 H           7.9111    6.6487    6.2237 H       1  LIG1        0.0621
     38 C           7.7287    7.9529    7.7302 C.ar    1  LIG1       -0.0503
     39 C           6.9916    9.0378    8.1588 C.ar    1  LIG1       -0.0570
     40 H           7.1740    9.4108    8.9905 H       1  LIG1        0.0621
     41 C           5.9736    9.5905    7.3673 C.ar    1  LIG1       -0.0351
     42 H           5.4784   10.3160    7.6719 H       1  LIG1        0.0637
     43 C           8.8541    7.4194    8.5758 C.3     1  LIG1       -0.0397
     44 H           9.6936    7.6263    8.1578 H       1  LIG1        0.0278
     45 H           8.7660    6.4678    8.6633 H       1  LIG1        0.0278
     46 H           8.8209    7.8252    9.4440 H       1  LIG1        0.0278
     47 O           8.6814   15.2288    4.6511 O.2     1  LIG1       -0.2509
     48 O           9.3105   15.9390    2.7130 O.3     1  LIG1       -0.4679
     49 O           3.5553   10.4479    5.8232 O.2     1  LIG1       -0.1528
     50 O           4.1140    8.7618    4.1197 O.2     1  LIG1       -0.1528
     51 S           4.5377    9.7670    5.0404 S.O2    1  LIG1        0.0614
     52 N           5.3377   10.9451    4.1845 N.3     1  LIG1       -0.1692
@<TRIPOS>BOND
     1    28    27    1
     2    26    25    1
     3    27    25   ar
     4    27    29   ar
     5    25    23   ar
     6    30    29    1
     7    29    31   ar
     8    23    24    1
     9    23    22   ar
    10    13    11    1
    11    31    22   ar
    12    31    32    1
    13     7     6    1
    14     8     6    1
    15    12    11    1
    16    22    14    1
    17    11    14    1
    18    11     9    1
    19     6     5    1
    20     6     9    1
    21    48     1    1
    22    48     5    1
    23     3     1    1
    24    14    15    1
    25    14    52    1
    26     1     2    1
    27     1     4    1
    28     5    47    2
    29     9    10    1
    30     9    19    1
    31    21    19    1
    32    50    51    2
    33    52    51    1
    34    52    16    1
    35    19    20    1
    36    19    16    1
    37    35    34    1
    38    51    49    2
    39    51    33    1
    40    16    17    1
    41    16    18    1
    42    34    33   ar
    43    34    36   ar
    44    33    41   ar
    45    37    36    1
    46    36    38   ar
    47    41    42    1
    48    41    39   ar
    49    38    39   ar
    50    38    43    1
    51    44    43    1
    52    39    40    1
    53    43    45    1
    54    43    46    1
