@<TRIPOS>MOLECULE
?
 44 46 0 0 0
SMALL
GASTEIGER

@<TRIPOS>ATOM
      1 S           3.3139    5.7209    5.2991 S.2     1  LIG1       -0.0327
      2 O          -1.2200    5.0443    7.2528 O.2     1  LIG1       -0.2698
      3 N           0.7399    5.3887    6.0379 N.am    1  LIG1       -0.2283
      4 N           3.4032    5.4407    8.3651 N.pl3   1  LIG1       -0.3123
      5 C          -0.0082    5.1962    7.2551 C.2     1  LIG1        0.2503
      6 C           0.9356    5.2174    8.3476 C.2     1  LIG1        0.0245
      7 H           0.7235    5.1450    9.2717 H       1  LIG1        0.0689
      8 C           2.1884    5.3614    7.8169 C.2     1  LIG1        0.0658
      9 C           2.0749    5.4788    6.3240 C.2     1  LIG1        0.1072
     10 C           0.1650    5.4589    4.7311 C.ar    1  LIG1        0.0451
     11 C           0.4659    4.4715    3.8182 C.ar    1  LIG1       -0.0394
     12 H           1.0587    3.7671    4.0551 H       1  LIG1        0.0636
     13 C          -0.1030    4.5098    2.5482 C.ar    1  LIG1       -0.0571
     14 H           0.0971    3.8255    1.9198 H       1  LIG1        0.0621
     15 C          -0.9632    5.5451    2.1939 C.ar    1  LIG1       -0.0501
     16 C          -1.2282    6.5327    3.1191 C.ar    1  LIG1       -0.0541
     17 H          -1.8091    7.2424    2.8740 H       1  LIG1        0.0623
     18 C          -0.6772    6.5329    4.4008 C.ar    1  LIG1       -0.0284
     19 C          -0.9602    7.6541    5.3490 C.3     1  LIG1       -0.0379
     20 H          -1.5717    8.2933    4.9270 H       1  LIG1        0.0278
     21 H          -0.1217    8.1065    5.5785 H       1  LIG1        0.0278
     22 H          -1.3716    7.2978    6.1641 H       1  LIG1        0.0278
     23 C          -1.5403    5.6091    0.8043 C.3     1  LIG1       -0.0397
     24 H          -2.1212    6.3944    0.7271 H       1  LIG1        0.0278
     25 H          -2.0622    4.7991    0.6301 H       1  LIG1        0.0278
     26 H          -0.8124    5.6763    0.1513 H       1  LIG1        0.0278
     27 C           3.6817    5.3252    9.7542 C.ar    1  LIG1        0.0343
     28 C           3.0590    4.3412   10.5154 C.ar    1  LIG1       -0.0400
     29 H           2.4438    3.7423   10.1090 H       1  LIG1        0.0636
     30 C           3.3390    4.2389   11.8683 C.ar    1  LIG1       -0.0571
     31 H           2.9037    3.5730   12.3858 H       1  LIG1        0.0621
     32 C           4.2455    5.0940   12.4788 C.ar    1  LIG1       -0.0501
     33 C           4.8689    6.0544   11.6952 C.ar    1  LIG1       -0.0542
     34 H           5.5006    6.6352   12.1029 H       1  LIG1        0.0623
     35 C           4.6038    6.2026   10.3319 C.ar    1  LIG1       -0.0291
     36 C           5.2706    7.3152    9.5620 C.3     1  LIG1       -0.0379
     37 H           5.8761    7.8058   10.1567 H       1  LIG1        0.0278
     38 H           4.5882    7.9269    9.2141 H       1  LIG1        0.0278
     39 H           5.7813    6.9359    8.8160 H       1  LIG1        0.0278
     40 C           4.5128    4.9859   13.9692 C.3     1  LIG1       -0.0397
     41 H           3.9856    4.2488   14.3435 H       1  LIG1        0.0278
     42 H           4.2581    5.8237   14.4093 H       1  LIG1        0.0278
     43 H           5.4655    4.8151   14.1181 H       1  LIG1        0.0278
     44 H           4.0095    5.5449    7.8191 H       1  LIG1        0.1522
@<TRIPOS>BOND
     1    26    23    1
     2    25    23    1
     3    24    23    1
     4    23    15    1
     5    14    13    1
     6    15    13   ar
     7    15    16   ar
     8    13    11   ar
     9    17    16    1
    10    16    18   ar
    11    11    12    1
    12    11    10   ar
    13    18    10   ar
    14    18    19    1
    15    10     3    1
    16    20    19    1
    17     1     9    2
    18    19    21    1
    19    19    22    1
    20     3     9    1
    21     3     5   am
    22     9     8    1
    23     2     5    2
    24     5     6    1
    25     8     6    2
    26     8     4    1
    27    44     4    1
    28     6     7    1
    29     4    27    1
    30    39    36    1
    31    38    36    1
    32    36    37    1
    33    36    35    1
    34    27    35   ar
    35    27    28   ar
    36    29    28    1
    37    35    33   ar
    38    28    30   ar
    39    33    34    1
    40    33    32   ar
    41    30    31    1
    42    30    32   ar
    43    32    40    1
    44    40    43    1
    45    40    41    1
    46    40    42    1
