@<TRIPOS>MOLECULE
?
 36 39 0 0 0
SMALL
GASTEIGER

@<TRIPOS>ATOM
      1 N           3.1356    8.6480    7.1296 N.4     1  LIG1       -0.1772
      2 C           1.8264    7.9784    7.0850 C.3     1  LIG1        0.0724
      3 H           1.4783    7.8321    7.9894 H       1  LIG1        0.0517
      4 C           1.8545    6.6365    6.2721 C.3     1  LIG1        0.1018
      5 H           2.7799    6.4165    6.0358 H       1  LIG1        0.0637
      6 O           1.2854    5.5615    7.0262 O.3     1  LIG1       -0.3875
      7 H           0.5104    5.7452    7.2210 H       1  LIG1        0.2100
      8 C           1.0602    6.9340    4.9998 C.3     1  LIG1        0.1123
      9 H           0.6490    6.1174    4.6469 H       1  LIG1        0.0648
     10 C          -0.0106    7.9127    5.5008 C.3     1  LIG1        0.0907
     11 H          -0.5067    8.3379    4.7698 H       1  LIG1        0.0624
     12 O          -0.8505    7.1728    6.3773 O.3     1  LIG1       -0.3887
     13 H          -1.4296    7.6667    6.6832 H       1  LIG1        0.2099
     14 C           0.8811    8.9034    6.2707 C.3     1  LIG1        0.0381
     15 H           0.3732    9.5266    6.8311 H       1  LIG1        0.0370
     16 O           3.1949    9.4354    5.9057 O.3     1  LIG1       -0.2903
     17 C           1.8695    9.6009    5.3306 C.3     1  LIG1        0.1103
     18 H           1.6511   10.5542    5.2597 H       1  LIG1        0.0643
     19 C           1.8795    8.9699    3.9567 C.3     1  LIG1        0.0767
     20 H           1.0883    9.2509    3.4693 H       1  LIG1        0.0586
     21 H           2.6570    9.2806    3.4674 H       1  LIG1        0.0586
     22 O           1.9069    7.5373    4.0260 O.3     1  LIG1       -0.3688
     23 C           3.3203    9.5712    8.2853 C.3     1  LIG1        0.0500
     24 H           4.1565   10.0452    8.1604 H       1  LIG1        0.0499
     25 H           3.4120    9.0325    9.0883 H       1  LIG1        0.0499
     26 C           2.2333   10.5955    8.5331 C.ar    1  LIG1       -0.0311
     27 C           2.1803   11.7503    7.7618 C.ar    1  LIG1       -0.0573
     28 H           2.8573   11.9231    7.1480 H       1  LIG1        0.0621
     29 C           1.1344   12.6453    7.8938 C.ar    1  LIG1       -0.0615
     30 H           1.1101   13.4077    7.3613 H       1  LIG1        0.0618
     31 C           0.1379   12.4183    8.7982 C.ar    1  LIG1       -0.0617
     32 H          -0.5747   13.0122    8.8635 H       1  LIG1        0.0618
     33 C           0.1872   11.3208    9.6069 C.ar    1  LIG1       -0.0615
     34 H          -0.4767   11.1830   10.2428 H       1  LIG1        0.0618
     35 C           1.2368   10.4025    9.4790 C.ar    1  LIG1       -0.0573
     36 H           1.2655    9.6560   10.0334 H       1  LIG1        0.0621
@<TRIPOS>BOND
     1    21    19    1
     2    20    19    1
     3    19    22    1
     4    19    17    1
     5    22     8    1
     6     9     8    1
     7    11    10    1
     8     8    10    1
     9     8     4    1
    10    18    17    1
    11    17    16    1
    12    17    14    1
    13    10    14    1
    14    10    12    1
    15    16     1    1
    16     5     4    1
    17    14    15    1
    18    14     2    1
    19     4     6    1
    20     4     2    1
    21    12    13    1
    22     6     7    1
    23     2     1    1
    24     2     3    1
    25     1    23    1
    26    28    27    1
    27    30    29    1
    28    27    29   ar
    29    27    26   ar
    30    29    31   ar
    31    24    23    1
    32    23    26    1
    33    23    25    1
    34    26    35   ar
    35    31    32    1
    36    31    33   ar
    37    35    33   ar
    38    35    36    1
    39    33    34    1
