@<TRIPOS>MOLECULE
C15 H17 N O3
 36 37 0 0 0
SMALL
GASTEIGER

@<TRIPOS>ATOM
      1 O           5.2583    3.2543    3.5534 O.2     1  LIG1       -0.3585
      2 O           6.9663    6.3394    1.2151 O.2     1  LIG1       -0.2448
      3 O           8.8227    5.1729    1.6387 O.3     1  LIG1       -0.4643
      4 N           6.4017    2.3980    3.5534 N.ar    1  LIG1       -0.0772
      5 C           7.3117    3.0467    2.8747 C.ar    1  LIG1        0.1281
      6 C           6.8243    4.3147    2.4268 C.ar    1  LIG1        0.1282
      7 C           5.5370    4.3733    2.8642 C.ar    1  LIG1        0.1488
      8 C           8.6229    2.3907    2.6264 C.ar    1  LIG1        0.0103
      9 C           9.7282    2.6944    3.4249 C.ar    1  LIG1       -0.0407
     10 C          10.9240    2.0485    3.1645 C.ar    1  LIG1       -0.0553
     11 C          11.0696    1.1336    2.1317 C.ar    1  LIG1       -0.0499
     12 C           9.9510    0.8591    1.3575 C.ar    1  LIG1       -0.0553
     13 C           8.7241    1.4565    1.5797 C.ar    1  LIG1       -0.0407
     14 C           7.5096    5.3852    1.6942 C.2     1  LIG1        0.3445
     15 C           9.6128    6.1766    0.9686 C.3     1  LIG1        0.0820
     16 C           4.4433    5.3550    2.7410 C.3     1  LIG1       -0.0029
     17 C           9.6296    3.7045    4.5359 C.3     1  LIG1       -0.0391
     18 C          12.3835    0.4593    1.8696 C.3     1  LIG1       -0.0397
     19 C           7.5354    1.0970    0.7221 C.3     1  LIG1       -0.0391
     20 H          11.6751    2.2388    3.7148 H       1  LIG1        0.0623
     21 H          10.0318    0.2370    0.6440 H       1  LIG1        0.0623
     22 H           8.7747    3.6404    4.9456 H       1  LIG1        0.0278
     23 H           9.7459    4.5773    4.1800 H       1  LIG1        0.0278
     24 H          10.3043    3.5316    5.1817 H       1  LIG1        0.0278
     25 H          12.9810    0.6404    2.5848 H       1  LIG1        0.0278
     26 H          12.7519    0.7887    1.0589 H       1  LIG1        0.0278
     27 H          12.2494   -0.4785    1.7984 H       1  LIG1        0.0278
     28 H           7.8328    0.8664   -0.1510 H       1  LIG1        0.0278
     29 H           7.0791    0.3577    1.1075 H       1  LIG1        0.0278
     30 H           6.9459    1.8399    0.6701 H       1  LIG1        0.0278
     31 H          10.5334    5.9551    1.0398 H       1  LIG1        0.0661
     32 H           9.3660    6.2141    0.0521 H       1  LIG1        0.0661
     33 H           9.4583    7.0228    1.3731 H       1  LIG1        0.0661
     34 H           4.8090    6.2278    2.6525 H       1  LIG1        0.0309
     35 H           3.8964    5.3184    3.5169 H       1  LIG1        0.0309
     36 H           3.9195    5.1519    1.9755 H       1  LIG1        0.0309
@<TRIPOS>BOND
     1    28    19    1
     2    32    15    1
     3    21    12    1
     4    30    19    1
     5    19    29    1
     6    19    13    1
     7    15    31    1
     8    15    33    1
     9    15     3    1
    10    26    18    1
    11     2    14    2
    12    12    13   ar
    13    12    11   ar
    14    13     8   ar
    15     3    14    1
    16    14     6    1
    17    27    18    1
    18    18    11    1
    19    18    25    1
    20    36    16    1
    21    11    10   ar
    22     6     7   ar
    23     6     5   ar
    24     8     5    1
    25     8     9   ar
    26    34    16    1
    27    16     7    1
    28    16    35    1
    29     7     1   ar
    30     5     4   ar
    31    10     9   ar
    32    10    20    1
    33     9    17    1
    34     1     4   ar
    35    23    17    1
    36    17    22    1
    37    17    24    1
