@<TRIPOS>MOLECULE
?
 52 52 0 0 0
SMALL
GASTEIGER

@<TRIPOS>ATOM
      1 P          -1.0711    9.0936    6.1439 P.3     1  LIG1        0.3360
      2 O          -2.2176    9.1277    7.2410 O.3     1  LIG1       -0.3058
      3 O          -0.6992   10.4276    5.6487 O.2     1  LIG1       -0.2582
      4 O          -1.6610    8.1076    5.0734 O.3     1  LIG1       -0.3080
      5 O          -2.0901    6.0035   10.8638 O.3     1  LIG1       -0.4447
      6 O          -1.3940    7.9831   11.7554 O.2     1  LIG1       -0.2265
      7 N          -1.2709    7.5508    9.5351 N.am    1  LIG1       -0.2758
      8 H          -1.3895    6.9620    8.9203 H       1  LIG1        0.1524
      9 C          -1.8099    9.7030    8.5099 C.3     1  LIG1        0.0757
     10 H          -2.5807    9.7720    9.0949 H       1  LIG1        0.0583
     11 H          -1.4643   10.5964    8.3633 H       1  LIG1        0.0583
     12 C          -0.7490    8.8559    9.1738 C.3     1  LIG1        0.0539
     13 H          -0.5100    9.3057   10.0104 H       1  LIG1        0.0525
     14 C           0.5359    8.7921    8.3172 C.3     1  LIG1       -0.0045
     15 H           0.7796    9.7267    8.1461 H       1  LIG1        0.0330
     16 C           0.2527    8.1766    6.9149 C.3     1  LIG1        0.0632
     17 H          -0.0443    7.2513    7.0387 H       1  LIG1        0.0424
     18 C          -2.4353    8.5708    3.9578 C.3     1  LIG1        0.0541
     19 H          -1.9385    9.2450    3.4687 H       1  LIG1        0.0562
     20 H          -3.2617    8.9712    4.2736 H       1  LIG1        0.0562
     21 C          -2.7354    7.4283    3.0783 C.3     1  LIG1       -0.0411
     22 H          -3.2531    7.7299    2.3280 H       1  LIG1        0.0252
     23 H          -3.2329    6.7696    3.5673 H       1  LIG1        0.0252
     24 H          -1.9137    7.0423    2.7651 H       1  LIG1        0.0252
     25 C          -1.5755    7.2400   10.8126 C.2     1  LIG1        0.4011
     26 C          -2.4295    5.3656   12.1576 C.3     1  LIG1        0.1068
     27 C          -3.4843    6.1489   12.8955 C.3     1  LIG1       -0.0253
     28 H          -4.2507    6.2663   12.3291 H       1  LIG1        0.0268
     29 H          -3.1325    7.0084   13.1407 H       1  LIG1        0.0268
     30 H          -3.7419    5.6713   13.6870 H       1  LIG1        0.0268
     31 C          -2.9891    4.0235   11.6908 C.3     1  LIG1       -0.0253
     32 H          -3.7104    4.1737   11.0751 H       1  LIG1        0.0268
     33 H          -3.3123    3.5304   12.4490 H       1  LIG1        0.0268
     34 H          -2.2957    3.5212   11.2550 H       1  LIG1        0.0268
     35 C          -1.1760    5.1680   12.9634 C.3     1  LIG1       -0.0253
     36 H          -0.5151    4.7285   12.4237 H       1  LIG1        0.0268
     37 H          -1.3722    4.6276   13.7323 H       1  LIG1        0.0268
     38 H          -0.8407    6.0203   13.2486 H       1  LIG1        0.0268
     39 C           1.7705    8.1694    9.0136 C.3     1  LIG1       -0.0413
     40 H           2.5449    8.3876    8.4539 H       1  LIG1        0.0299
     41 C           2.0290    8.8137   10.3809 C.3     1  LIG1       -0.0623
     42 H           2.0227    9.7699   10.2903 H       1  LIG1        0.0232
     43 H           2.8832    8.5296   10.7127 H       1  LIG1        0.0232
     44 H           1.3415    8.5471   10.9952 H       1  LIG1        0.0232
     45 C           1.7463    6.6543    9.1429 C.3     1  LIG1       -0.0623
     46 H           1.5264    6.2642    8.2940 H       1  LIG1        0.0232
     47 H           1.0863    6.3990    9.7932 H       1  LIG1        0.0232
     48 H           2.6094    6.3424    9.4254 H       1  LIG1        0.0232
     49 C           1.4871    8.1694    5.9940 C.3     1  LIG1       -0.0511
     50 H           1.2229    7.9121    5.1078 H       1  LIG1        0.0238
     51 H           2.1324    7.5426    6.3298 H       1  LIG1        0.0238
     52 H           1.8747    9.0474    5.9713 H       1  LIG1        0.0238
@<TRIPOS>BOND
     1    22    21    1
     2    24    21    1
     3    21    23    1
     4    21    18    1
     5    19    18    1
     6    18    20    1
     7    18     4    1
     8     4     1    1
     9    50    49    1
    10     3     1    2
    11    52    49    1
    12    49    51    1
    13    49    16    1
    14     1    16    1
    15     1     2    1
    16    16    17    1
    17    16    14    1
    18     2     9    1
    19    15    14    1
    20    46    45    1
    21    14    39    1
    22    14    12    1
    23    11     9    1
    24    40    39    1
    25     9    10    1
    26     9    12    1
    27     8     7    1
    28    39    45    1
    29    39    41    1
    30    45    48    1
    31    45    47    1
    32    12     7    1
    33    12    13    1
    34     7    25   am
    35    42    41    1
    36    41    43    1
    37    41    44    1
    38    25     5    1
    39    25     6    2
    40     5    26    1
    41    32    31    1
    42    34    31    1
    43    31    26    1
    44    31    33    1
    45    26    27    1
    46    26    35    1
    47    28    27    1
    48    36    35    1
    49    27    29    1
    50    27    30    1
    51    35    38    1
    52    35    37    1
