@<TRIPOS>MOLECULE
4021956.cif
 55 58 0 0 0
SMALL
GASTEIGER

@<TRIPOS>ATOM
      1 O           4.6325    8.1145   12.0526 O.2     1  LIG1       -0.2505
      2 O           3.9620    8.0028    9.9731 O.3     1  LIG1       -0.4606
      3 C           3.6910    8.1132   11.2920 C.2     1  LIG1        0.3105
      4 C           2.2502    8.1752   11.6955 C.3     1  LIG1        0.0574
      5 C           1.6129    6.7739   11.5067 C.3     1  LIG1       -0.0361
      6 C           1.0129    6.7659   10.0719 C.3     1  LIG1       -0.0256
      7 C           1.3153    5.4993    9.2180 C.3     1  LIG1       -0.0226
      8 C           1.0879    4.1861   10.0428 C.3     1  LIG1       -0.0325
      9 C           1.4719    2.9297    9.2191 C.3     1  LIG1       -0.0405
     10 C           2.9024    3.0334    8.6770 C.3     1  LIG1       -0.0499
     11 C           3.1713    4.3154    7.9258 C.3     1  LIG1       -0.0493
     12 C           2.7999    5.5336    8.7766 C.3     1  LIG1       -0.0317
     13 C           3.1537    6.8344    8.0664 C.3     1  LIG1       -0.0118
     14 C           2.9132    8.0536    8.9403 C.3     1  LIG1        0.1090
     15 C           1.4812    8.1277    9.4677 C.3     1  LIG1        0.0091
     16 C           1.4726    9.0376   10.7055 C.3     1  LIG1       -0.0310
     17 C           0.5777    8.7160    8.3727 C.3     1  LIG1       -0.0559
     18 C           0.3569    5.4884    8.0012 C.3     1  LIG1       -0.0588
     19 C           1.3273    1.6288   10.0186 C.3     1  LIG1       -0.0621
     20 C          -0.3406    4.0748   10.6208 C.3     1  LIG1       -0.0474
     21 C          -0.4046    3.5865   12.0740 C.3     1  LIG1       -0.0294
     22 C          -1.8025    3.5948   12.6433 C.3     1  LIG1        0.0442
     23 O          -2.4000    4.8851   12.6512 O.3     1  LIG1       -0.3950
     24 H           3.1052    2.1602    8.1203 H       1  LIG1        0.0268
     25 H           0.8467    2.8491    8.4815 H       1  LIG1        0.0301
     26 H          -0.0222    2.6863   12.1322 H       1  LIG1        0.0287
     27 H           3.2954    5.4744    9.6146 H       1  LIG1        0.0307
     28 H          -0.8509    4.9920   10.6446 H       1  LIG1        0.0269
     29 H           3.0652    8.8880    8.4547 H       1  LIG1        0.0739
     30 H           1.7550    4.1920   10.8092 H       1  LIG1        0.0309
     31 H           2.1916    8.4088   12.6285 H       1  LIG1        0.0414
     32 H           1.9936    9.9520   10.4774 H       1  LIG1        0.0280
     33 H           0.0448    6.8906   10.1550 H       1  LIG1        0.0313
     34 H           2.2442    6.1496   11.6199 H       1  LIG1        0.0276
     35 H           4.0616    6.7788    7.8046 H       1  LIG1        0.0304
     36 H           0.5310    9.1220   11.0165 H       1  LIG1        0.0280
     37 H           3.4901    2.9553    9.5115 H       1  LIG1        0.0268
     38 H           0.9143    6.7350   12.0533 H       1  LIG1        0.0276
     39 H           0.2133    4.1428   12.5750 H       1  LIG1        0.0287
     40 H           2.6008    6.9448    7.2507 H       1  LIG1        0.0304
     41 H           0.7787    9.6712    8.2768 H       1  LIG1        0.0236
     42 H           4.1397    4.3247    7.7189 H       1  LIG1        0.0268
     43 H           0.6486    8.2689    7.4380 H       1  LIG1        0.0236
     44 H          -0.6257    5.5906    8.3209 H       1  LIG1        0.0235
     45 H           0.4569    1.4069   10.2473 H       1  LIG1        0.0233
     46 H           1.6162    0.7606    9.4982 H       1  LIG1        0.0233
     47 H          -0.8096    3.4449   10.0734 H       1  LIG1        0.0269
     48 H          -0.3678    8.6713    8.6447 H       1  LIG1        0.0236
     49 H           2.6585    4.3833    7.0233 H       1  LIG1        0.0268
     50 H           0.3667    4.6627    7.5584 H       1  LIG1        0.0235
     51 H           1.9190    1.6203   10.8627 H       1  LIG1        0.0233
     52 H           0.4104    6.3055    7.3979 H       1  LIG1        0.0235
     53 H          -2.4096    2.9285   12.1470 H       1  LIG1        0.0557
     54 H          -1.7222    3.2318   13.4981 H       1  LIG1        0.0557
     55 H          -1.8298    5.3935   13.1101 H       1  LIG1        0.2094
@<TRIPOS>BOND
     1    49    11    1
     2    40    13    1
     3    52    18    1
     4    43    17    1
     5    50    18    1
     6    42    11    1
     7    35    13    1
     8    11    10    1
     9    11    12    1
    10    18    44    1
    11    18     7    1
    12    13    12    1
    13    13    14    1
    14    24    10    1
    15    41    17    1
    16    17    48    1
    17    17    15    1
    18    29    14    1
    19    25     9    1
    20    10     9    1
    21    10    37    1
    22    12     7    1
    23    12    27    1
    24    14    15    1
    25    14     2    1
    26     7     8    1
    27     7     6    1
    28     9    19    1
    29     9     8    1
    30    15     6    1
    31    15    16    1
    32    46    19    1
    33     2     3    1
    34    19    45    1
    35    19    51    1
    36     8    20    1
    37     8    30    1
    38     6    33    1
    39     6     5    1
    40    47    20    1
    41    32    16    1
    42    20    28    1
    43    20    21    1
    44    16    36    1
    45    16     4    1
    46     3     4    1
    47     3     1    2
    48     5    34    1
    49     5     4    1
    50     5    38    1
    51     4    31    1
    52    21    26    1
    53    21    39    1
    54    21    22    1
    55    53    22    1
    56    22    23    1
    57    22    54    1
    58    23    55    1
