@<TRIPOS>MOLECULE
C15 H19 N O
 36 37 0 0 0
SMALL
GASTEIGER

@<TRIPOS>ATOM
      1 O           7.3625    3.9249    9.3428 O.3     1  LIG1       -0.3882
      2 N           8.7659   -0.9180    7.1583 N.1     1  LIG1       -0.1960
      3 C           7.0825    3.6102    7.9665 C.3     1  LIG1        0.0715
      4 C           8.0666    4.3430    7.0660 C.3     1  LIG1       -0.0236
      5 C           9.4918    3.8817    7.2129 C.3     1  LIG1       -0.0490
      6 C           9.6045    2.3898    6.9716 C.3     1  LIG1       -0.0340
      7 C           8.7017    1.5891    7.9267 C.3     1  LIG1        0.0640
      8 C           7.2264    2.0828    7.7821 C.3     1  LIG1        0.0308
      9 C           5.6666    4.0283    7.6444 C.3     1  LIG1       -0.0355
     10 C           8.7299    0.1697    7.4793 C.1     1  LIG1        0.0697
     11 C           9.2681    1.6030    9.3542 C.3     1  LIG1       -0.0460
     12 C           6.2470    1.2173    8.5380 C.ar    1  LIG1       -0.0401
     13 C           6.0233    1.3237    9.9064 C.ar    1  LIG1       -0.0582
     14 C           5.1613    0.4582   10.5496 C.ar    1  LIG1       -0.0615
     15 C           4.4995   -0.5246    9.8529 C.ar    1  LIG1       -0.0617
     16 C           4.6951   -0.6325    8.4856 C.ar    1  LIG1       -0.0615
     17 C           5.5587    0.2360    7.8424 C.ar    1  LIG1       -0.0582
     18 H           7.8413    4.1933    6.1246 H       1  LIG1        0.0293
     19 H           8.0290    5.2933    7.2015 H       1  LIG1        0.0293
     20 H           9.8157    4.0699    8.1316 H       1  LIG1        0.0267
     21 H          10.1239    4.3924    6.6471 H       1  LIG1        0.0267
     22 H           9.3385    2.2293    6.0267 H       1  LIG1        0.0280
     23 H          10.5307    2.0874    7.0103 H       1  LIG1        0.0280
     24 H           7.0168    1.9393    6.8315 H       1  LIG1        0.0392
     25 H           5.4085    3.8107    6.7359 H       1  LIG1        0.0257
     26 H           5.0080    3.5315    8.2079 H       1  LIG1        0.0257
     27 H           5.4851    4.9462    7.7901 H       1  LIG1        0.0257
     28 H           9.2634    2.4885    9.7470 H       1  LIG1        0.0245
     29 H          10.1567    1.2651    9.4168 H       1  LIG1        0.0245
     30 H           8.7190    1.0522    9.9621 H       1  LIG1        0.0245
     31 H           6.5396    2.0242   10.4517 H       1  LIG1        0.0620
     32 H           4.9892    0.5539   11.5161 H       1  LIG1        0.0618
     33 H           3.9238   -1.1525   10.3162 H       1  LIG1        0.0618
     34 H           4.2195   -1.3145    7.9916 H       1  LIG1        0.0618
     35 H           5.6963    0.1574    6.8452 H       1  LIG1        0.0620
     36 H           7.2264    4.9755    9.4464 H       1  LIG1        0.2102
@<TRIPOS>BOND
     1    22     6    1
     2    18     4    1
     3    21     5    1
     4    25     9    1
     5    24     8    1
     6    35    17    1
     7     6    23    1
     8     6     5    1
     9     6     7    1
    10     4    19    1
    11     4     5    1
    12     4     3    1
    13     2    10    3
    14     5    20    1
    15    10     7    1
    16     9    27    1
    17     9     3    1
    18     9    26    1
    19     8     7    1
    20     8     3    1
    21     8    12    1
    22    17    16   ar
    23    17    12   ar
    24     7    11    1
    25     3     1    1
    26    34    16    1
    27    16    15   ar
    28    12    13   ar
    29     1    36    1
    30    11    29    1
    31    11    28    1
    32    11    30    1
    33    15    33    1
    34    15    14   ar
    35    13    31    1
    36    13    14   ar
    37    14    32    1
