@<TRIPOS>MOLECULE
?
 114 122 0 0 0
SMALL
GASTEIGER

@<TRIPOS>ATOM
      1 F           7.0289   14.4580    9.8879 F       1  LIG1        0.0000
      2 F           7.7590   17.2065   15.1716 F       2  LIG2        0.0000
      3 O           5.3232   16.0884    9.7901 O.3     1  LIG1        0.0000
      4 O           9.4472   15.5610   15.0740 O.3     2  LIG2        0.0000
      5 N           6.6340   15.4342    7.7734 N.3     1  LIG1        0.0000
      6 N           8.1778   16.2791   13.0332 N.3     2  LIG2        0.0000
      7 C           5.4488   17.3679    9.4211 C.ar    1  LIG1        0.0000
      8 C           4.8352   18.3688   10.1444 C.ar    1  LIG1        0.0000
      9 H           4.3609   18.1186   10.7334 H       1  LIG1        0.0000
     10 C           4.9913   19.6825    9.8089 C.ar    1  LIG1        0.0000
     11 H           4.5124   20.4512   10.2827 H       1  LIG1        0.0000
     12 C           5.7718   20.0581    8.7041 C.ar    1  LIG1        0.0000
     13 H           5.9172   21.1089    8.4169 H       1  LIG1        0.0000
     14 C           6.3733   19.0815    7.9589 C.ar    1  LIG1        0.0000
     15 H           6.8800   19.2510    7.1906 H       1  LIG1        0.0000
     16 C           6.2083   17.7180    8.2985 C.ar    1  LIG1        0.0000
     17 C           6.8038   16.6953    7.5113 C.3     1  LIG1        0.0000
     18 H           7.2953   16.9568    6.6350 H       1  LIG1        0.0000
     19 C           7.3097   14.4275    6.9243 C.3     1  LIG1        0.0000
     20 H           7.5546   13.6861    7.4316 H       1  LIG1        0.0000
     21 H           8.1651   14.8976    6.4464 H       1  LIG1        0.0000
     22 C           6.4172   13.8086    5.8510 C.ar    1  LIG1        0.0000
     23 C           6.3547   12.4400    5.7105 C.ar    1  LIG1        0.0000
     24 H           6.8316   11.8801    6.3415 H       1  LIG1        0.0000
     25 C           5.5944   11.8691    4.6959 C.ar    1  LIG1        0.0000
     26 H           5.6384   10.8246    4.4967 H       1  LIG1        0.0000
     27 C           4.8659   12.6538    3.8447 C.ar    1  LIG1        0.0000
     28 H           4.3987   12.2780    3.1865 H       1  LIG1        0.0000
     29 C           4.9250   14.0342    3.9538 C.ar    1  LIG1        0.0000
     30 H           4.4583   14.5676    3.5638 H       1  LIG1        0.0000
     31 C           5.7045   14.6043    4.9695 C.ar    1  LIG1        0.0000
     32 H           5.6880   15.5441    5.1152 H       1  LIG1        0.0000
     33 C           4.8293   13.7795    8.8740 C.3     1  LIG1        0.0000
     34 H           5.1540   13.0193    8.3436 H       1  LIG1        0.0000
     35 C           3.5612   14.3274    8.1276 C.3     1  LIG1        0.0000
     36 H           3.6635   15.4876    8.0291 H       1  LIG1        0.0000
     37 H           3.6242   14.0319    7.1277 H       1  LIG1        0.0000
     38 C           2.2326   13.9413    8.7985 C.3     1  LIG1        0.0000
     39 H           1.3980   14.3326    8.2702 H       1  LIG1        0.0000
     40 C           2.2229   12.4174    9.1612 C.3     1  LIG1        0.0000
     41 C           3.0108   12.8453   10.4368 C.3     1  LIG1        0.0000
     42 H           2.9009   12.1943   11.3519 H       1  LIG1        0.0000
     43 C           2.3417   14.2320   10.3163 C.3     1  LIG1        0.0000
     44 H           2.8434   15.0852   10.5552 H       1  LIG1        0.0000
     45 H           1.4377   14.3122   10.8487 H       1  LIG1        0.0000
     46 C           4.5240   13.0754   10.2366 C.3     1  LIG1        0.0000
     47 H           4.8509   13.6952   11.0374 H       1  LIG1        0.0000
     48 C           5.3597   11.7823   10.3886 C.3     1  LIG1        0.0000
     49 H           5.1127   11.3964   11.3414 H       1  LIG1        0.0000
     50 H           6.3550   11.8779   10.3875 H       1  LIG1        0.0000
     51 H           5.0596   11.0868    9.6643 H       1  LIG1        0.0000
     52 C           2.7922   11.4113    8.1738 C.3     1  LIG1        0.0000
     53 H           2.8534   10.5330    8.5742 H       1  LIG1        0.0000
     54 H           3.6820   11.6541    7.8509 H       1  LIG1        0.0000
     55 H           2.1666   11.2382    7.2535 H       1  LIG1        0.0000
     56 C           0.8081   11.9434    9.5123 C.3     1  LIG1        0.0000
     57 H           0.3337   11.7762    8.7209 H       1  LIG1        0.0000
     58 H           0.3187   12.6238    9.9578 H       1  LIG1        0.0000
     59 H           0.8973   11.0755   10.0940 H       1  LIG1        0.0000
     60 C           9.3589   14.3014   14.6537 C.ar    2  LIG2        0.0000
     61 C           9.9926   13.2790   15.3559 C.ar    2  LIG2        0.0000
     62 H          10.5122   13.5618   16.2259 H       2  LIG2        0.0000
     63 C           9.9000   11.9735   14.9199 C.ar    2  LIG2        0.0000
     64 H          10.2884   11.3874   15.3559 H       2  LIG2        0.0000
     65 C           9.1667   11.6430   13.7711 C.ar    2  LIG2        0.0000
     66 H           9.1739   10.7025   13.5635 H       2  LIG2        0.0000
     67 C           8.5348   12.6482   13.0751 C.ar    2  LIG2        0.0000
     68 H           7.9696   12.5243   12.1904 H       2  LIG2        0.0000
     69 C           8.6399   13.9797   13.4755 C.ar    2  LIG2        0.0000
     70 C           8.0442   15.0414   12.7292 C.3     2  LIG2        0.0000
     71 H           7.4262   14.8434   12.0332 H       2  LIG2        0.0000
     72 C           7.5247   17.3103   12.1841 C.3     2  LIG2        0.0000
     73 H           7.2294   18.1253   12.7879 H       2  LIG2        0.0000
     74 H           6.7254   16.8483   11.7816 H       2  LIG2        0.0000
     75 C           8.4514   17.9233   11.1485 C.ar    2  LIG2        0.0000
     76 C           9.0915   17.1202   10.2188 C.ar    2  LIG2        0.0000
     77 H           8.9541   16.0481   10.1360 H       2  LIG2        0.0000
     78 C           9.9345   17.6807    9.2639 C.ar    2  LIG2        0.0000
     79 H          10.5160   17.1218    8.4484 H       2  LIG2        0.0000
     80 C          10.1103   19.0457    9.2104 C.ar    2  LIG2        0.0000
     81 H          10.8933   19.4431    8.4694 H       2  LIG2        0.0000
     82 C           9.4790   19.8585   10.1391 C.ar    2  LIG2        0.0000
     83 H           9.6650   20.8128   10.1360 H       2  LIG2        0.0000
     84 C           8.6509   19.2971   11.1003 C.ar    2  LIG2        0.0000
     85 H           8.2002   19.8635   11.7082 H       2  LIG2        0.0000
     86 C           9.9686   17.8934   14.1956 C.3     2  LIG2        0.0000
     87 H           9.5601   18.5232   13.5635 H       2  LIG2        0.0000
     88 C          11.2316   17.3550   13.4839 C.3     2  LIG2        0.0000
     89 H          11.2193   16.4188   13.4902 H       2  LIG2        0.0000
     90 H          11.2066   17.6507   12.5049 H       2  LIG2        0.0000
     91 C          12.5394   17.7601   14.1579 C.3     2  LIG2        0.0000
     92 H          13.2628   17.4382   13.7837 H       2  LIG2        0.0000
     93 C          12.5440   19.2774   14.4838 C.3     2  LIG2        0.0000
     94 C          11.7529   18.8611   15.7679 C.3     2  LIG2        0.0000
     95 H          11.9408   19.3730   16.6347 H       2  LIG2        0.0000
     96 C          12.4432   17.4751   15.6725 C.3     2  LIG2        0.0000
     97 H          13.3745   17.4518   16.0058 H       2  LIG2        0.0000
     98 H          11.9091   16.6742   15.9429 H       2  LIG2        0.0000
     99 C          10.2567   18.6373   15.5509 C.3     2  LIG2        0.0000
    100 H           9.8887   17.9377   16.2888 H       2  LIG2        0.0000
    101 C           9.4389   19.9076   15.6882 C.3     2  LIG2        0.0000
    102 H           9.5614   20.6817   15.0624 H       2  LIG2        0.0000
    103 H           9.6061   20.4173   16.6452 H       2  LIG2        0.0000
    104 H           8.4974   19.6465   15.4608 H       2  LIG2        0.0000
    105 C          11.9706   20.2475   13.4723 C.3     2  LIG2        0.0000
    106 H          12.0690   21.2920   13.8046 H       2  LIG2        0.0000
    107 H          11.1855   20.0534   13.2176 H       2  LIG2        0.0000
    108 H          12.5487   20.2229   12.6621 H       2  LIG2        0.0000
    109 C          13.9762   19.7659   14.8622 C.3     2  LIG2        0.0000
    110 H          14.5961   19.9042   13.9199 H       2  LIG2        0.0000
    111 H          14.2721   19.1673   15.5236 H       2  LIG2        0.0000
    112 H          13.9668   20.6591   15.1463 H       2  LIG2        0.0000
    113 B           5.9243   14.9248    9.0983 B       1  LIG1        0.0000
    114 B           8.8643   16.7531   14.3958 B       2  LIG2        0.0000
@<TRIPOS>BOND
     1    28    27    1
     2    30    29    1
     3    27    29   ar
     4    27    25   ar
     5    29    31   ar
     6    26    25    1
     7    25    23   ar
     8    31    32    1
     9    31    22   ar
    10    23    22   ar
    11    23    24    1
    12    22    19    1
    13    21    19    1
    14    18    17    1
    15    19    20    1
    16    19     5    1
    17    37    35    1
    18    15    14    1
    19    55    52    1
    20    17     5    1
    21    17    16    1
    22     5   113    1
    23    54    52    1
    24    14    16   ar
    25    14    12   ar
    26    36    35    1
    27    35    38    1
    28    35    33    1
    29    52    53    1
    30    52    40    1
    31    39    38    1
    32    16     7   ar
    33    34    33    1
    34    13    12    1
    35    79    78    1
    36    81    80    1
    37    12    10   ar
    38    57    56    1
    39    38    40    1
    40    38    43    1
    41    33   113    1
    42    33    46    1
    43   113     3    1
    44   113     1    1
    45    40    56    1
    46    40    41    1
    47    80    78   ar
    48    80    82   ar
    49    78    76   ar
    50     7     3    1
    51     7     8   ar
    52    56    58    1
    53    56    59    1
    54    51    48    1
    55    10     8   ar
    56    10    11    1
    57    83    82    1
    58    77    76    1
    59    82    84   ar
    60     8     9    1
    61    76    75   ar
    62    46    48    1
    63    46    41    1
    64    46    47    1
    65    43    41    1
    66    43    44    1
    67    43    45    1
    68    50    48    1
    69    48    49    1
    70    41    42    1
    71    84    75   ar
    72    84    85    1
    73    75    72    1
    74    74    72    1
    75    71    70    1
    76    72    73    1
    77    72     6    1
    78    68    67    1
    79    90    88    1
    80   108   105    1
    81    70     6    1
    82    70    69    1
    83     6   114    1
    84    67    69   ar
    85    67    65   ar
    86   107   105    1
    87   105   106    1
    88   105    93    1
    89    69    60   ar
    90    88    89    1
    91    88    91    1
    92    88    86    1
    93    66    65    1
    94    87    86    1
    95    65    63   ar
    96    92    91    1
    97   110   109    1
    98    91    93    1
    99    91    96    1
   100    86   114    1
   101    86    99    1
   102   114     4    1
   103   114     2    1
   104    93   109    1
   105    93    94    1
   106    60     4    1
   107    60    61   ar
   108   109   112    1
   109   109   111    1
   110    63    61   ar
   111    63    64    1
   112   102   101    1
   113    61    62    1
   114   104   101    1
   115    99   101    1
   116    99    94    1
   117    99   100    1
   118    96    94    1
   119    96    98    1
   120    96    97    1
   121   101   103    1
   122    94    95    1
