@<TRIPOS>MOLECULE
C19 H21 N O3
 44 46 0 0 0
SMALL
GASTEIGER

@<TRIPOS>ATOM
      1 O           1.0070   -3.5574    7.9758 O.3     1  LIG1       -0.4951
      2 O           0.1266   -1.3816   14.5192 O.2     1  LIG1       -0.2726
      3 O          -2.0743    0.8017   14.8410 O.3     1  LIG1       -0.3801
      4 N           0.4915    0.4368   13.0914 N.am    1  LIG1       -0.2800
      5 C           0.0036   -0.2165   14.1603 C.2     1  LIG1        0.2479
      6 C          -0.7155    0.9955   14.7095 C.3     1  LIG1        0.1561
      7 C          -0.1450    1.7420   13.4317 C.3     1  LIG1        0.0947
      8 C           1.6266    0.1650   12.2066 C.3     1  LIG1        0.0494
      9 C           1.3276   -0.8085   11.0835 C.ar    1  LIG1       -0.0270
     10 C           2.0268   -0.6776    9.8862 C.ar    1  LIG1       -0.0534
     11 C           1.8942   -1.6125    8.8916 C.ar    1  LIG1       -0.0196
     12 C           1.0371   -2.6837    9.0339 C.ar    1  LIG1        0.1201
     13 C           0.3130   -2.8034   10.1801 C.ar    1  LIG1       -0.0196
     14 C           0.4603   -1.8767   11.2057 C.ar    1  LIG1       -0.0534
     15 C           0.0867   -4.6309    8.0191 C.3     1  LIG1        0.0788
     16 C           2.8159   -0.3240   13.0203 C.3     1  LIG1       -0.0422
     17 C          -1.2103    2.1901   12.4603 C.ar    1  LIG1       -0.0212
     18 C          -1.9720    3.3053   12.7526 C.ar    1  LIG1       -0.0564
     19 C          -2.9656    3.7232   11.8895 C.ar    1  LIG1       -0.0614
     20 C          -3.1962    3.0517   10.7154 C.ar    1  LIG1       -0.0617
     21 C          -2.4561    1.9524   10.4276 C.ar    1  LIG1       -0.0614
     22 C          -1.4744    1.5020   11.2862 C.ar    1  LIG1       -0.0564
     23 C           0.8841    2.8223   13.7442 C.3     1  LIG1       -0.0364
     24 H          -0.3203    1.3112   15.5139 H       1  LIG1        0.0716
     25 H           1.8769    0.9895   11.8075 H       1  LIG1        0.0548
     26 H           2.6024    0.0674    9.7578 H       1  LIG1        0.0622
     27 H           2.4001   -1.5209    8.0918 H       1  LIG1        0.0654
     28 H          -0.2974   -3.5248   10.2807 H       1  LIG1        0.0654
     29 H          -0.0439   -1.9789   12.0039 H       1  LIG1        0.0622
     30 H          -0.7984   -4.2879    8.0470 H       1  LIG1        0.0660
     31 H           0.2474   -5.1548    8.7957 H       1  LIG1        0.0660
     32 H           0.1939   -5.1707    7.2457 H       1  LIG1        0.0660
     33 H           3.0812    0.3535   13.6313 H       1  LIG1        0.0251
     34 H           2.5710   -1.1053   13.5013 H       1  LIG1        0.0251
     35 H           3.5381   -0.5239   12.4371 H       1  LIG1        0.0251
     36 H          -2.4331    1.4626   15.4210 H       1  LIG1        0.2105
     37 H          -1.8097    3.7898   13.5539 H       1  LIG1        0.0621
     38 H          -3.4941    4.4817   12.1107 H       1  LIG1        0.0618
     39 H          -3.8656    3.3522   10.1136 H       1  LIG1        0.0618
     40 H          -2.6167    1.4838    9.6171 H       1  LIG1        0.0618
     41 H          -0.9796    0.7200   11.0727 H       1  LIG1        0.0621
     42 H           1.5340    2.4763   14.3444 H       1  LIG1        0.0255
     43 H           0.4503    3.5672   14.1418 H       1  LIG1        0.0255
     44 H           1.3103    3.0956   12.9398 H       1  LIG1        0.0255
@<TRIPOS>BOND
     1    32    15    1
     2     1    15    1
     3     1    12    1
     4    15    30    1
     5    15    31    1
     6    27    11    1
     7    11    12   ar
     8    11    10   ar
     9    12    13   ar
    10    40    21    1
    11    26    10    1
    12    10     9   ar
    13    39    20    1
    14    13    28    1
    15    13    14   ar
    16    21    20   ar
    17    21    22   ar
    18    20    19   ar
    19    41    22    1
    20     9    14   ar
    21     9     8    1
    22    14    29    1
    23    22    17   ar
    24    25     8    1
    25    19    38    1
    26    19    18   ar
    27     8    16    1
    28     8     4    1
    29    35    16    1
    30    17    18   ar
    31    17     7    1
    32    18    37    1
    33    44    23    1
    34    16    34    1
    35    16    33    1
    36     4     7    1
    37     4     5   am
    38     7    23    1
    39     7     6    1
    40    23    43    1
    41    23    42    1
    42     5     2    2
    43     5     6    1
    44     6     3    1
    45     6    24    1
    46     3    36    1
