@<TRIPOS>MOLECULE
trans,trans-[1.1](3,3')-Azobenzenophane
 100 108 0 0 0
SMALL
GASTEIGER

@<TRIPOS>ATOM
      1 N           4.1411    4.3940    4.7574 N.pl3   1  LIG1       -0.1294
      2 N           3.3542    4.7634    5.6621 N.pl3   1  LIG1       -0.1294
      3 N           3.5480    2.0961    0.8022 N.pl3   1  LIG1       -0.1294
      4 N           3.7380    2.1644   -0.4137 N.pl3   1  LIG1       -0.1294
      5 N          -1.3150    4.5860    4.7767 N.pl3   2  LIG2       -0.1294
      6 N          -2.2241    4.8806    5.6102 N.pl3   2  LIG2       -0.1294
      7 N          -1.2518    1.9773    0.9288 N.pl3   2  LIG2       -0.1294
      8 N          -1.1951    2.2751   -0.2605 N.pl3   2  LIG2       -0.1294
      9 C           4.8675    5.4941    4.1097 C.ar    1  LIG1        0.0726
     10 C           5.7995    5.0140    3.1712 C.ar    1  LIG1       -0.0337
     11 C           6.4104    5.8847    2.2569 C.ar    1  LIG1       -0.0412
     12 C           6.0733    7.2191    2.3449 C.ar    1  LIG1       -0.0581
     13 C           5.1909    7.7025    3.3111 C.ar    1  LIG1       -0.0596
     14 C           4.5737    6.8107    4.1579 C.ar    1  LIG1       -0.0372
     15 C           2.5314    3.5689    5.9733 C.ar    1  LIG1        0.0726
     16 C           1.3860    3.8667    6.6971 C.ar    1  LIG1       -0.0372
     17 C           0.4367    2.8398    6.8696 C.ar    1  LIG1       -0.0596
     18 C           0.6487    1.5851    6.3014 C.ar    1  LIG1       -0.0581
     19 C           1.7855    1.2889    5.5789 C.ar    1  LIG1       -0.0412
     20 C           2.7567    2.3060    5.5053 C.ar    1  LIG1       -0.0337
     21 C           1.9762   -0.0228    4.8455 C.3     1  LIG1       -0.0023
     22 C           1.8578    0.1155    3.3377 C.ar    1  LIG1       -0.0412
     23 C           0.9642   -0.6233    2.6031 C.ar    1  LIG1       -0.0581
     24 C           0.8932   -0.5110    1.2388 C.ar    1  LIG1       -0.0596
     25 C           1.7071    0.3710    0.5645 C.ar    1  LIG1       -0.0372
     26 C           2.5952    1.1197    1.2750 C.ar    1  LIG1        0.0726
     27 C           2.6346    0.9960    2.6356 C.ar    1  LIG1       -0.0337
     28 C           4.7560    3.1620   -0.6646 C.ar    1  LIG1        0.0726
     29 C           4.9979    3.4745   -1.9903 C.ar    1  LIG1       -0.0372
     30 C           5.9645    4.4233   -2.2810 C.ar    1  LIG1       -0.0596
     31 C           6.7043    4.9929   -1.2859 C.ar    1  LIG1       -0.0581
     32 C           6.4882    4.6576    0.0458 C.ar    1  LIG1       -0.0412
     33 C           5.5125    3.7088    0.3197 C.ar    1  LIG1       -0.0337
     34 C           7.2596    5.3200    1.1435 C.3     1  LIG1       -0.0023
     35 C          -0.6438    5.7024    4.1290 C.ar    2  LIG2        0.0726
     36 C           0.4694    5.2451    3.3895 C.ar    2  LIG2       -0.0337
     37 C           1.0788    6.1516    2.4873 C.ar    2  LIG2       -0.0412
     38 C           0.6166    7.4096    2.4197 C.ar    2  LIG2       -0.0581
     39 C          -0.4607    7.8603    3.1990 C.ar    2  LIG2       -0.0596
     40 C          -1.0868    6.9799    4.0276 C.ar    2  LIG2       -0.0372
     41 C          -2.9321    3.6649    5.9878 C.ar    2  LIG2        0.0726
     42 C          -3.8061    3.7544    7.0529 C.ar    2  LIG2       -0.0372
     43 C          -4.4949    2.6038    7.4124 C.ar    2  LIG2       -0.0596
     44 C          -4.3182    1.4110    6.7393 C.ar    2  LIG2       -0.0581
     45 C          -3.4842    1.3149    5.6187 C.ar    2  LIG2       -0.0412
     46 C          -2.7687    2.4769    5.3340 C.ar    2  LIG2       -0.0337
     47 C          -3.2606    0.0179    4.8768 C.3     2  LIG2       -0.0023
     48 C          -3.3000    0.1383    3.3751 C.ar    2  LIG2       -0.0412
     49 C          -4.3510   -0.2880    2.5838 C.ar    2  LIG2       -0.0581
     50 C          -4.3784   -0.0814    1.2364 C.ar    2  LIG2       -0.0596
     51 C          -3.3949    0.6510    0.6043 C.ar    2  LIG2       -0.0372
     52 C          -2.3336    1.1115    1.3594 C.ar    2  LIG2        0.0726
     53 C          -2.2867    0.8218    2.7032 C.ar    2  LIG2       -0.0337
     54 C          -0.1301    3.2499   -0.4342 C.ar    2  LIG2        0.0726
     55 C           0.2156    3.5412   -1.7684 C.ar    2  LIG2       -0.0372
     56 C           1.1926    4.4656   -1.9963 C.ar    2  LIG2       -0.0596
     57 C           1.8376    5.1328   -0.9541 C.ar    2  LIG2       -0.0581
     58 C           1.4939    4.8578    0.3703 C.ar    2  LIG2       -0.0412
     59 C           0.5023    3.8781    0.5826 C.ar    2  LIG2       -0.0337
     60 C           2.1114    5.5820    1.5090 C.3     2  LIG2       -0.0023
     61 H           6.0230    4.0539    3.1519 H       1  LIG1        0.0640
     62 H           6.4895    7.8587    1.7599 H       1  LIG1        0.0620
     63 H           5.0009    8.6708    3.3558 H       1  LIG1        0.0618
     64 H           3.9364    7.0987    4.8081 H       1  LIG1        0.0637
     65 H           1.2768    4.7748    7.1096 H       1  LIG1        0.0637
     66 H          -0.3332    2.9944    7.3906 H       1  LIG1        0.0618
     67 H          -0.0185    0.8983    6.4582 H       1  LIG1        0.0620
     68 H           3.6468    2.0993    5.1229 H       1  LIG1        0.0640
     69 H           0.3950   -1.3263    3.0204 H       1  LIG1        0.0620
     70 H           0.2171   -1.0578    0.7503 H       1  LIG1        0.0618
     71 H           1.6596    0.4703   -0.4258 H       1  LIG1        0.0637
     72 H           3.2661    1.5786    3.1290 H       1  LIG1        0.0640
     73 H           4.4709    3.0481   -2.7104 H       1  LIG1        0.0637
     74 H           6.0938    4.6169   -3.1869 H       1  LIG1        0.0618
     75 H           7.3778    5.6552   -1.5162 H       1  LIG1        0.0620
     76 H           5.3623    3.4517    1.2678 H       1  LIG1        0.0640
     77 H           2.8545   -0.3694    5.0819 H       1  LIG1        0.0361
     78 H           1.3381   -0.6656    5.1856 H       1  LIG1        0.0361
     79 H           7.8391    6.0084    0.7684 H       1  LIG1        0.0361
     80 H           7.8763    4.6365    1.5018 H       1  LIG1        0.0361
     81 H           0.8600    4.3500    3.5029 H       2  LIG2        0.0640
     82 H           1.0289    8.0540    1.8070 H       2  LIG2        0.0620
     83 H          -0.8099    8.8026    3.0916 H       2  LIG2        0.0618
     84 H          -1.8739    7.2501    4.5306 H       2  LIG2        0.0637
     85 H          -3.8745    4.5583    7.6005 H       2  LIG2        0.0637
     86 H          -5.1305    2.6315    8.1325 H       2  LIG2        0.0618
     87 H          -4.7365    0.5940    7.0939 H       2  LIG2        0.0620
     88 H          -2.0994    2.4053    4.6018 H       2  LIG2        0.0640
     89 H          -5.0586   -0.8267    2.9855 H       2  LIG2        0.0620
     90 H          -5.1234   -0.4719    0.6960 H       2  LIG2        0.0618
     91 H          -3.4288    0.8690   -0.3450 H       2  LIG2        0.0637
     92 H          -1.5030    1.1392    3.2110 H       2  LIG2        0.0640
     93 H          -0.2552    3.1230   -2.5464 H       2  LIG2        0.0637
     94 H           1.5018    4.6771   -2.8648 H       2  LIG2        0.0618
     95 H           2.5150    5.8147   -1.1411 H       2  LIG2        0.0620
     96 H           0.2541    3.7300    1.5162 H       2  LIG2        0.0640
     97 H          -2.3772   -0.3450    5.1193 H       2  LIG2        0.0361
     98 H          -3.8953   -0.6542    5.1531 H       2  LIG2        0.0361
     99 H           2.6529    6.3306    1.1628 H       2  LIG2        0.0361
    100 H           2.7412    4.9961    1.9589 H       2  LIG2        0.0361
@<TRIPOS>BOND
     1    74    30    1
     2    94    56    1
     3    73    29    1
     4    93    55    1
     5    30    29   ar
     6    30    31   ar
     7    56    55   ar
     8    56    57   ar
     9    29    28   ar
    10    55    54   ar
    11    75    31    1
    12    31    32   ar
    13    95    57    1
    14    57    58   ar
    15    28     4    1
    16    28    33   ar
    17    54     8    1
    18    54    59   ar
    19    71    25    1
    20     4     3    1
    21    91    51    1
    22     8     7    1
    23    32    33   ar
    24    32    34    1
    25    33    76    1
    26    58    59   ar
    27    58    60    1
    28    25    24   ar
    29    25    26   ar
    30    59    96    1
    31    51    50   ar
    32    51    52   ar
    33    90    50    1
    34    70    24    1
    35    79    34    1
    36     3    26    1
    37     7    52    1
    38    34    80    1
    39    34    11    1
    40    99    60    1
    41    50    49   ar
    42    24    23   ar
    43    26    27   ar
    44    52    53   ar
    45    60   100    1
    46    60    37    1
    47    62    12    1
    48    82    38    1
    49    11    12   ar
    50    11    10   ar
    51    12    13   ar
    52    38    37   ar
    53    38    39   ar
    54    37    36   ar
    55    49    89    1
    56    49    48   ar
    57    23    69    1
    58    23    22   ar
    59    27    72    1
    60    27    22   ar
    61    53    92    1
    62    53    48   ar
    63    83    39    1
    64    61    10    1
    65    10     9   ar
    66    39    40   ar
    67    13    63    1
    68    13    14   ar
    69    22    21    1
    70    48    47    1
    71    36    81    1
    72    36    35   ar
    73    40    35   ar
    74    40    84    1
    75     9    14   ar
    76     9     1    1
    77    35     5    1
    78    14    64    1
    79    88    46    1
    80     1     2    1
    81     5     6    1
    82    21    77    1
    83    21    78    1
    84    21    19    1
    85    47    97    1
    86    47    98    1
    87    47    45    1
    88    68    20    1
    89    46    45   ar
    90    46    41   ar
    91    20    19   ar
    92    20    15   ar
    93    19    18   ar
    94     6    41    1
    95    45    44   ar
    96     2    15    1
    97    15    16   ar
    98    41    42   ar
    99    18    67    1
   100    18    17   ar
   101    16    17   ar
   102    16    65    1
   103    44    87    1
   104    44    43   ar
   105    17    66    1
   106    42    43   ar
   107    42    85    1
   108    43    86    1
