@<TRIPOS>MOLECULE
?
 48 51 0 0 0
SMALL
GASTEIGER

@<TRIPOS>ATOM
      1 O           5.0276   10.3231   -1.7161 O.2     1  LIG1       -0.2864
      2 O           6.1486    6.7156    0.4053 O.2     1  LIG1       -0.2697
      3 N           5.5668    8.2635    2.5116 N.pl3   1  LIG1       -0.3131
      4 H           5.8969    7.4979    2.1446 H       1  LIG1        0.1522
      5 N           5.8092    7.6162   -1.6870 N.am    1  LIG1       -0.2811
      6 H           5.5619    8.4397   -2.0606 H       1  LIG1        0.1551
      7 C           5.0727   10.1562   -0.4896 C.2     1  LIG1        0.2006
      8 C           5.4191    8.9552    0.2323 C.2     1  LIG1        0.1058
      9 C           5.2887    9.1995    1.6038 C.2     1  LIG1        0.0553
     10 C           4.8768   10.6204    1.8125 C.ar    1  LIG1        0.0078
     11 C           4.6817   11.4105    2.9390 C.ar    1  LIG1       -0.0521
     12 H           4.7916   11.0508    3.8118 H       1  LIG1        0.0624
     13 C           4.3192   12.7502    2.7551 C.ar    1  LIG1       -0.0611
     14 H           4.1650   13.2959    3.5171 H       1  LIG1        0.0618
     15 C           4.1792   13.3014    1.4963 C.ar    1  LIG1       -0.0610
     16 H           3.9204   14.2104    1.4018 H       1  LIG1        0.0618
     17 C           4.4205   12.5184    0.3604 C.ar    1  LIG1       -0.0503
     18 H           4.3543   12.8905   -0.5108 H       1  LIG1        0.0625
     19 C           4.7552   11.1938    0.5398 C.ar    1  LIG1        0.0314
     20 C           5.8201    7.6674   -0.3256 C.2     1  LIG1        0.2538
     21 C           6.1641    6.5492   -2.5433 C.ar    1  LIG1        0.0366
     22 C           6.3836    5.2553   -2.0722 C.ar    1  LIG1       -0.0402
     23 H           6.2788    5.0594   -1.1483 H       1  LIG1        0.0636
     24 C           6.7585    4.2500   -2.9620 C.ar    1  LIG1       -0.0600
     25 H           6.9219    3.3720   -2.6368 H       1  LIG1        0.0618
     26 C           6.8935    4.5163   -4.3126 C.ar    1  LIG1       -0.0614
     27 H           7.1515    3.8289   -4.9148 H       1  LIG1        0.0618
     28 C           6.6493    5.7976   -4.7738 C.ar    1  LIG1       -0.0571
     29 H           6.7319    5.9772   -5.7030 H       1  LIG1        0.0621
     30 C           6.2833    6.8346   -3.9120 C.ar    1  LIG1       -0.0292
     31 C           6.0234    8.2119   -4.4583 C.3     1  LIG1       -0.0380
     32 H           6.2008    8.2205   -5.4216 H       1  LIG1        0.0278
     33 H           6.6111    8.8571   -4.0119 H       1  LIG1        0.0278
     34 H           5.0880    8.4561   -4.2960 H       1  LIG1        0.0278
     35 C           5.2719    8.2235    3.9009 C.ar    1  LIG1        0.0343
     36 C           4.0538    8.6953    4.3726 C.ar    1  LIG1       -0.0403
     37 H           3.4197    9.0610    3.7665 H       1  LIG1        0.0636
     38 C           3.7617    8.6323    5.7257 C.ar    1  LIG1       -0.0600
     39 H           2.9426    8.9839    6.0538 H       1  LIG1        0.0618
     40 C           4.6676    8.0554    6.5962 C.ar    1  LIG1       -0.0614
     41 H           4.4780    8.0224    7.5263 H       1  LIG1        0.0618
     42 C           5.8520    7.5245    6.1109 C.ar    1  LIG1       -0.0571
     43 H           6.4534    7.1050    6.7153 H       1  LIG1        0.0621
     44 C           6.1836    7.5914    4.7554 C.ar    1  LIG1       -0.0293
     45 C           7.4413    6.9641    4.2213 C.3     1  LIG1       -0.0380
     46 H           7.9855    6.6371    4.9682 H       1  LIG1        0.0278
     47 H           7.9491    7.6312    3.7144 H       1  LIG1        0.0278
     48 H           7.2088    6.2157    3.6331 H       1  LIG1        0.0278
@<TRIPOS>BOND
     1    29    28    1
     2    32    31    1
     3    27    26    1
     4    28    26   ar
     5    28    30   ar
     6    31    34    1
     7    31    33    1
     8    31    30    1
     9    26    24   ar
    10    30    21   ar
    11    24    25    1
    12    24    22   ar
    13    21    22   ar
    14    21     5    1
    15    22    23    1
    16     6     5    1
    17     1     7    2
    18     5    20   am
    19    18    17    1
    20     7     8    1
    21     7    19    1
    22    20     8    1
    23    20     2    2
    24     8     9    2
    25    17    19   ar
    26    17    15   ar
    27    19    10   ar
    28    16    15    1
    29    15    13   ar
    30     9    10    1
    31     9     3    1
    32    10    11   ar
    33     4     3    1
    34     3    35    1
    35    13    11   ar
    36    13    14    1
    37    11    12    1
    38    48    45    1
    39    47    45    1
    40    37    36    1
    41    35    36   ar
    42    35    44   ar
    43    45    44    1
    44    45    46    1
    45    36    38   ar
    46    44    42   ar
    47    38    39    1
    48    38    40   ar
    49    42    40   ar
    50    42    43    1
    51    40    41    1
