@<TRIPOS>MOLECULE
?
 55 58 0 0 0
SMALL
GASTEIGER

@<TRIPOS>ATOM
      1 BR          5.0973   -2.1863    0.4432 Br      1  LIG1       -0.0502
      2 CL          0.8606   -4.0882    4.9502 Cl      1  LIG1       -0.0816
      3 CL          3.0661   -0.6046    8.3760 Cl      1  LIG1       -0.0835
      4 O           1.1774    3.3551    5.2052 O.3     1  LIG1       -0.4639
      5 O           5.2929    2.1154    3.6634 O.3     1  LIG1       -0.2625
      6 H           5.1008    2.9164    3.4989 H       1  LIG1        0.2470
      7 O          -1.5342    0.2715    2.4880 O.2     1  LIG1       -0.2742
      8 O           2.7004    3.5205    3.6552 O.2     1  LIG1       -0.2498
      9 O          -0.0940   -2.8230    1.9891 O.3     1  LIG1       -0.3642
     10 N           4.2794    1.5102    3.9821 N.4     1  LIG1       -0.1284
     11 O           3.8518    1.4351    5.1259 O.3     1  LIG1       -0.2625
     12 H           3.2524    0.8480    5.1628 H       1  LIG1        0.2470
     13 N          -0.4351   -1.3385    3.7065 N.am    1  LIG1       -0.2452
     14 C           3.9382   -0.9838    1.3249 C.ar    1  LIG1        0.0200
     15 C           1.5746    0.2051    6.2688 C.ar    1  LIG1       -0.0373
     16 H           1.7507    1.0943    6.5536 H       1  LIG1        0.0636
     17 C           4.4572   -0.1138    2.2554 C.ar    1  LIG1       -0.0194
     18 H           5.3906   -0.0911    2.4289 H       1  LIG1        0.0651
     19 C           1.7577   -0.0761    1.6908 C.ar    1  LIG1       -0.0543
     20 H           0.8386   -0.0522    1.4518 H       1  LIG1        0.0622
     21 C          -0.8327    1.8989    4.8752 C.3     1  LIG1        0.0009
     22 H          -1.3476    2.3868    4.1843 H       1  LIG1        0.0312
     23 H          -1.4761    1.3918    5.4319 H       1  LIG1        0.0312
     24 C           1.0676   -2.4329    5.4380 C.ar    1  LIG1        0.0641
     25 C           0.4641    2.5020    2.0826 C.3     1  LIG1       -0.0138
     26 H           1.1668    2.6856    1.4107 H       1  LIG1        0.0321
     27 H          -0.1841    1.8817    1.6652 H       1  LIG1        0.0321
     28 C           1.1451    1.7439    3.3037 C.3     1  LIG1        0.1159
     29 C           0.8019   -0.0481    5.1506 C.ar    1  LIG1       -0.0066
     30 C           3.5890    0.7347    2.9384 C.ar    1  LIG1        0.1001
     31 C           0.1242    0.9205    4.1933 C.3     1  LIG1        0.0972
     32 C           2.0875   -0.8898    6.9640 C.ar    1  LIG1        0.0428
     33 C           2.2041    0.8016    2.6896 C.ar    1  LIG1       -0.0010
     34 C           1.8758   -2.1862    6.5497 C.ar    1  LIG1       -0.0232
     35 H           2.2773   -2.9091    7.0176 H       1  LIG1        0.0647
     36 C           1.7515    2.9118    4.0879 C.2     1  LIG1        0.3194
     37 C           2.5827   -0.9775    1.0307 C.ar    1  LIG1       -0.0473
     38 H           2.2239   -1.5788    0.3885 H       1  LIG1        0.0629
     39 C           0.4930   -1.3630    4.7699 C.ar    1  LIG1        0.0611
     40 C          -0.1015    2.8942    5.7438 C.3     1  LIG1        0.0938
     41 H          -0.6855    3.6807    5.8840 H       1  LIG1        0.0698
     42 H           0.0599    2.4813    6.6291 H       1  LIG1        0.0698
     43 C          -0.7191   -0.0424    3.3372 C.2     1  LIG1        0.2337
     44 C          -1.0131   -2.4518    2.9939 C.3     1  LIG1        0.1200
     45 H          -1.1723   -3.2088    3.6102 H       1  LIG1        0.0775
     46 H          -1.8775   -2.1883    2.5880 H       1  LIG1        0.0775
     47 C          -0.2523    3.7954    2.3640 C.2     1  LIG1       -0.0897
     48 H           0.2267    4.4832    2.8121 H       1  LIG1        0.0567
     49 C          -0.5154   -4.0182    1.3356 C.3     1  LIG1        0.0385
     50 H          -0.5123   -4.7594    1.9768 H       1  LIG1        0.0524
     51 H           0.0979   -4.2218    0.5993 H       1  LIG1        0.0524
     52 H          -1.4207   -3.8954    0.9824 H       1  LIG1        0.0524
     53 C          -1.5028    4.0327    2.0261 C.2     1  LIG1       -0.1026
     54 H          -2.0077    3.3653    1.5764 H       1  LIG1        0.0532
     55 H          -1.9000    4.8712    2.2314 H       1  LIG1        0.0532
@<TRIPOS>BOND
     1    38    37    1
     2     1    14    1
     3    51    49    1
     4    52    49    1
     5    37    14   ar
     6    37    19   ar
     7    14    17   ar
     8    49    50    1
     9    49     9    1
    10    26    25    1
    11    20    19    1
    12    54    53    1
    13    27    25    1
    14    19    33   ar
    15     9    44    1
    16    53    55    1
    17    53    47    2
    18    25    47    1
    19    25    28    1
    20    17    18    1
    21    17    30   ar
    22    47    48    1
    23     7    43    2
    24    46    44    1
    25    33    30   ar
    26    33    28    1
    27    30    10    1
    28    44    45    1
    29    44    13    1
    30    28    36    1
    31    28    31    1
    32    43    13   am
    33    43    31    1
    34     6     5    1
    35     8    36    2
    36     5    10    1
    37    13    39    1
    38    10    11    1
    39    36     4    1
    40    22    21    1
    41    31    21    1
    42    31    29    1
    43    39    29   ar
    44    39    24   ar
    45    21    23    1
    46    21    40    1
    47     2    24    1
    48    11    12    1
    49    29    15   ar
    50     4    40    1
    51    24    34   ar
    52    40    41    1
    53    40    42    1
    54    15    16    1
    55    15    32   ar
    56    34    32   ar
    57    34    35    1
    58    32     3    1
