@<TRIPOS>MOLECULE
?
 70 74 0 0 0
SMALL
GASTEIGER

@<TRIPOS>ATOM
      1 O          -0.4933    1.2082   13.4150 O.2     1  LIG1       -0.2520
      2 O           0.3469    2.2777   10.3793 O.3     1  LIG1       -0.4945
      3 N           1.0279    2.9506   13.1986 N.am    1  LIG1       -0.2456
      4 N          -0.9268    3.3482   14.1691 N.am    1  LIG1       -0.2834
      5 C          -0.1768    2.3794   13.5661 C.2     1  LIG1        0.3097
      6 C          -0.3802    4.6859   13.8786 C.3     1  LIG1        0.0474
      7 H          -0.8066    5.0229   13.0385 H       1  LIG1        0.0520
      8 C           1.1051    4.3674   13.5736 C.3     1  LIG1        0.0758
      9 H           1.3963    4.8996   12.7784 H       1  LIG1        0.0573
     10 C          -2.3501    3.1469   14.3707 C.3     1  LIG1        0.0050
     11 H          -2.5545    2.1893   14.3243 H       1  LIG1        0.0429
     12 H          -2.8495    3.6215   13.6731 H       1  LIG1        0.0429
     13 H          -2.6082    3.4941   15.2506 H       1  LIG1        0.0429
     14 C          -0.6360    5.6917   14.9738 C.3     1  LIG1       -0.0443
     15 H          -1.6018    5.8222   15.0782 H       1  LIG1        0.0248
     16 H          -0.2159    6.5454   14.7386 H       1  LIG1        0.0248
     17 H          -0.2578    5.3619   15.8156 H       1  LIG1        0.0248
     18 C           2.0671    4.6160   14.7099 C.ar    1  LIG1       -0.0248
     19 C           2.0972    3.8064   15.8471 C.ar    1  LIG1       -0.0567
     20 H           1.5247    3.0503   15.9084 H       1  LIG1        0.0621
     21 C           2.9575    4.1054   16.8860 C.ar    1  LIG1       -0.0614
     22 H           2.9683    3.5568   17.6598 H       1  LIG1        0.0618
     23 C           3.8032    5.1944   16.8081 C.ar    1  LIG1       -0.0617
     24 H           4.4006    5.3866   17.5206 H       1  LIG1        0.0618
     25 C           3.7777    5.9927   15.7046 C.ar    1  LIG1       -0.0614
     26 H           4.3482    6.7509   15.6582 H       1  LIG1        0.0618
     27 C           2.9235    5.7061   14.6507 C.ar    1  LIG1       -0.0567
     28 H           2.9238    6.2619   13.8803 H       1  LIG1        0.0621
     29 C           2.1389    2.1626   12.8211 C.ar    1  LIG1        0.0466
     30 C           2.5650    1.1322   13.6632 C.ar    1  LIG1       -0.0362
     31 H           2.1338    0.9904   14.4983 H       1  LIG1        0.0639
     32 C           3.6114    0.3195   13.2809 C.ar    1  LIG1       -0.0424
     33 C           4.2374   -0.8414   14.0194 C.3     1  LIG1       -0.0271
     34 H           3.5466   -1.4157   14.4353 H       1  LIG1        0.0313
     35 H           4.8611   -0.5250   14.7203 H       1  LIG1        0.0313
     36 C           4.9889   -1.5924   12.8993 C.3     1  LIG1       -0.0450
     37 H           5.8014   -2.0311   13.2556 H       1  LIG1        0.0272
     38 H           4.4080   -2.2798   12.4868 H       1  LIG1        0.0272
     39 C           5.3567   -0.5075   11.8803 C.3     1  LIG1       -0.0271
     40 H           6.2442   -0.1171   12.0792 H       1  LIG1        0.0313
     41 H           5.3618   -0.8702   10.9591 H       1  LIG1        0.0313
     42 C           4.2505    0.5250   12.0576 C.ar    1  LIG1       -0.0435
     43 C           3.8511    1.5513   11.2439 C.ar    1  LIG1       -0.0487
     44 H           4.3084    1.6993   10.4239 H       1  LIG1        0.0627
     45 C           2.7869    2.3845   11.5930 C.ar    1  LIG1        0.0080
     46 C           2.3271    3.4808   10.6827 C.ar    1  LIG1        0.0333
     47 C           1.0614    3.4037   10.1115 C.ar    1  LIG1        0.1284
     48 C           0.5744    4.4444    9.2855 C.ar    1  LIG1       -0.0188
     49 H          -0.3026    4.3972    8.9243 H       1  LIG1        0.0654
     50 C           1.3731    5.5160    9.0121 C.ar    1  LIG1       -0.0505
     51 H           1.0315    6.2156    8.4670 H       1  LIG1        0.0625
     52 C           2.6823    5.6198    9.5064 C.ar    1  LIG1       -0.0171
     53 C           3.5215    6.7150    9.2027 C.ar    1  LIG1       -0.0540
     54 H           3.2016    7.4074    8.6377 H       1  LIG1        0.0624
     55 C           4.7827    6.7930    9.7097 C.ar    1  LIG1       -0.0612
     56 H           5.3473    7.5153    9.4628 H       1  LIG1        0.0618
     57 C           5.2524    5.8078   10.5962 C.ar    1  LIG1       -0.0611
     58 H           6.1206    5.8900   10.9740 H       1  LIG1        0.0618
     59 C           4.4696    4.7331   10.9226 C.ar    1  LIG1       -0.0533
     60 H           4.8038    4.0756   11.5224 H       1  LIG1        0.0624
     61 C           3.1669    4.5862   10.3806 C.ar    1  LIG1       -0.0066
     62 C          -0.9969    2.2161    9.9450 C.3     1  LIG1        0.0788
     63 H          -1.3847    1.3541   10.2035 H       1  LIG1        0.0660
     64 H          -1.0292    2.3106    8.9707 H       1  LIG1        0.0660
     65 H          -1.5076    2.9424   10.3609 H       1  LIG1        0.0660
     66 C           1.0091    9.3800   11.1612 C.3     1  LIG1        0.0970
     67 H           1.9752    9.5916   11.1098 H       1  LIG1        0.0597
     68 H           0.5502   10.1485   11.5854 H       1  LIG1        0.0597
     69 CL          0.7822    7.9626   12.1469 Cl      1  LIG1       -0.1083
     70 CL          0.3781    9.1526    9.5331 Cl      1  LIG1       -0.1083
@<TRIPOS>BOND
     1    51    50    1
     2    54    53    1
     3    49    48    1
     4    64    62    1
     5    50    48   ar
     6    50    52   ar
     7    53    52   ar
     8    53    55   ar
     9    48    47   ar
    10    56    55    1
    11    52    61   ar
    12    70    66    1
    13    55    57   ar
    14    62    63    1
    15    62    65    1
    16    62     2    1
    17    47     2    1
    18    47    46   ar
    19    61    46   ar
    20    61    59   ar
    21    44    43    1
    22    57    59   ar
    23    57    58    1
    24    46    45    1
    25    59    60    1
    26    41    39    1
    27    67    66    1
    28    66    68    1
    29    66    69    1
    30    43    45   ar
    31    43    42   ar
    32    45    29   ar
    33    39    42    1
    34    39    40    1
    35    39    36    1
    36    42    32   ar
    37    38    36    1
    38     9     8    1
    39    29     3    1
    40    29    30   ar
    41    36    37    1
    42    36    33    1
    43     7     6    1
    44     3     5   am
    45     3     8    1
    46    32    30   ar
    47    32    33    1
    48     1     5    2
    49     5     4   am
    50     8     6    1
    51     8    18    1
    52    30    31    1
    53    12    10    1
    54     6     4    1
    55     6    14    1
    56    28    27    1
    57    33    34    1
    58    33    35    1
    59     4    10    1
    60    11    10    1
    61    10    13    1
    62    27    18   ar
    63    27    25   ar
    64    18    19   ar
    65    16    14    1
    66    14    15    1
    67    14    17    1
    68    26    25    1
    69    25    23   ar
    70    19    20    1
    71    19    21   ar
    72    23    21   ar
    73    23    24    1
    74    21    22    1
