@<TRIPOS>MOLECULE
C18 H22 O2
 42 44 0 0 0
SMALL
GASTEIGER

@<TRIPOS>ATOM
      1 O           9.5605   -1.5942    2.2549 O.3     1  LIG1       -0.4302
      2 O           7.8023   -0.5520    3.1445 O.2     1  LIG1       -0.2507
      3 C          12.1654    0.2463    3.7481 C.3     1  LIG1       -0.0055
      4 C          11.1568   -0.5692    4.4848 C.3     1  LIG1       -0.0353
      5 C          10.6947    0.2712    3.3440 C.3     1  LIG1        0.0246
      6 C          10.2028   -0.3395    2.0902 C.2     1  LIG1        0.1117
      7 C          10.3394    0.1217    0.8614 C.2     1  LIG1       -0.0311
      8 C          11.0842    1.3871    0.5704 C.3     1  LIG1       -0.0283
      9 C          12.1540    1.1752   -0.4905 C.3     1  LIG1       -0.0492
     10 C          11.5680    0.5360   -1.7377 C.3     1  LIG1       -0.0525
     11 C          10.8839   -0.7793   -1.4051 C.3     1  LIG1       -0.0492
     12 C           9.7875   -0.5680   -0.3542 C.3     1  LIG1       -0.0283
     13 C          13.2162   -0.3496    2.8934 C.ar    1  LIG1       -0.0436
     14 C          13.0906   -1.5954    2.2998 C.ar    1  LIG1       -0.0583
     15 C          14.0988   -2.1047    1.5132 C.ar    1  LIG1       -0.0615
     16 C          15.2505   -1.3948    1.2970 C.ar    1  LIG1       -0.0617
     17 C          15.3978   -0.1709    1.8757 C.ar    1  LIG1       -0.0615
     18 C          14.3985    0.3466    2.6639 C.ar    1  LIG1       -0.0583
     19 C           8.3158   -1.5640    2.7920 C.2     1  LIG1        0.3089
     20 C           7.7263   -2.9220    2.8601 C.3     1  LIG1        0.0336
     21 H          12.4906    1.0209    4.2403 H       1  LIG1        0.0356
     22 H          10.9180   -0.2908    5.4542 H       1  LIG1        0.0278
     23 H          11.1114   -1.5076    4.3567 H       1  LIG1        0.0278
     24 H          10.2395    1.0506    3.5253 H       1  LIG1        0.0385
     25 H          11.5068    1.7747    1.3636 H       1  LIG1        0.0311
     26 H          10.4190    2.0774    0.2661 H       1  LIG1        0.0311
     27 H          12.8893    0.5935   -0.1497 H       1  LIG1        0.0268
     28 H          12.6188    2.0833   -0.6984 H       1  LIG1        0.0268
     29 H          12.2550    0.3917   -2.3779 H       1  LIG1        0.0265
     30 H          10.8505    1.1871   -2.1784 H       1  LIG1        0.0265
     31 H          11.6314   -1.4601   -1.0476 H       1  LIG1        0.0268
     32 H          10.4696   -1.1990   -2.2615 H       1  LIG1        0.0268
     33 H           9.0605    0.0297   -0.8148 H       1  LIG1        0.0311
     34 H           9.3631   -1.4364   -0.1663 H       1  LIG1        0.0311
     35 H          12.3180   -2.1130    2.3945 H       1  LIG1        0.0620
     36 H          13.9624   -2.9974    1.0476 H       1  LIG1        0.0618
     37 H          16.0379   -1.7866    0.7483 H       1  LIG1        0.0618
     38 H          16.2705    0.3443    1.7294 H       1  LIG1        0.0618
     39 H          14.4699    1.1396    3.0763 H       1  LIG1        0.0620
     40 H           6.8568   -2.8816    3.2426 H       1  LIG1        0.0342
     41 H           7.6712   -3.2841    1.9838 H       1  LIG1        0.0342
     42 H           8.2816   -3.4746    3.3973 H       1  LIG1        0.0342
@<TRIPOS>BOND
     1    29    10    1
     2    32    11    1
     3    30    10    1
     4    10    11    1
     5    10     9    1
     6    11    31    1
     7    11    12    1
     8    33    12    1
     9    28     9    1
    10     9    27    1
    11     9     8    1
    12    12    34    1
    13    12     7    1
    14    26     8    1
    15     8     7    1
    16     8    25    1
    17    37    16    1
    18     7     6    2
    19    36    15    1
    20    16    15   ar
    21    16    17   ar
    22    15    14   ar
    23    38    17    1
    24    17    18   ar
    25    41    20    1
    26     6     1    1
    27     6     5    1
    28     1    19    1
    29    14    35    1
    30    14    13   ar
    31    18    13   ar
    32    18    39    1
    33    19    20    1
    34    19     2    2
    35    20    40    1
    36    20    42    1
    37    13     3    1
    38     5    24    1
    39     5     3    1
    40     5     4    1
    41     3    21    1
    42     3     4    1
    43    23     4    1
    44     4    22    1
