@<TRIPOS>MOLECULE
?
 59 61 0 0 0
SMALL
GASTEIGER

@<TRIPOS>ATOM
      1 C           2.2569    6.6424    5.6043 C.ar    1  LIG1        0.0641
      2 C           2.0570    7.9608    6.0101 C.ar    1  LIG1       -0.0232
      3 H           1.7867    8.1515    6.9011 H       1  LIG1        0.0647
      4 C           2.2562    8.9871    5.1098 C.ar    1  LIG1        0.0428
      5 C           2.6514    8.7563    3.7957 C.ar    1  LIG1       -0.0373
      6 H           2.7496    9.4734    3.1803 H       1  LIG1        0.0636
      7 C           2.8971    7.4521    3.4143 C.ar    1  LIG1       -0.0066
      8 C           2.7034    6.3898    4.3074 C.ar    1  LIG1        0.0611
      9 C           3.0718    3.8356    4.2480 C.3     1  LIG1        0.1200
     10 H           3.6604    3.2807    3.6782 H       1  LIG1        0.0775
     11 H           3.5047    3.9210    5.1349 H       1  LIG1        0.0775
     12 C           1.3718    2.6249    3.1914 C.3     1  LIG1        0.0385
     13 H           1.1875    3.3449    2.5530 H       1  LIG1        0.0524
     14 H           0.5479    2.1229    3.3646 H       1  LIG1        0.0524
     15 H           2.0483    2.0223    2.8171 H       1  LIG1        0.0524
     16 C           3.2304    5.3871    2.3225 C.2     1  LIG1        0.2338
     17 C           3.2953    6.9094    2.0508 C.3     1  LIG1        0.0993
     18 C           2.2435    7.2354    0.9588 C.3     1  LIG1       -0.0048
     19 H           2.3302    8.1888    0.7057 H       1  LIG1        0.0305
     20 H           2.4378    6.6917    0.1554 H       1  LIG1        0.0305
     21 C           0.8079    6.9705    1.3989 C.3     1  LIG1        0.0824
     22 H           0.5559    6.6704    2.2642 H       1  LIG1        0.0619
     23 C           4.7952    7.2583    1.6346 C.3     1  LIG1        0.1391
     24 C           5.7586    6.6816    2.6964 C.ar    1  LIG1        0.0154
     25 C           6.1495    7.4058    3.8430 C.ar    1  LIG1        0.1245
     26 C           7.0663    6.8610    4.7476 C.ar    1  LIG1       -0.0196
     27 H           7.3553    7.3735    5.4939 H       1  LIG1        0.0654
     28 C           7.5571    5.5770    4.5620 C.ar    1  LIG1       -0.0583
     29 H           8.1795    5.2128    5.1803 H       1  LIG1        0.0619
     30 C           7.1407    4.8256    3.4778 C.ar    1  LIG1       -0.0612
     31 H           7.4483    3.9339    3.3660 H       1  LIG1        0.0618
     32 C           6.2678    5.3908    2.5530 C.ar    1  LIG1       -0.0539
     33 H           6.0092    4.8785    1.7965 H       1  LIG1        0.0622
     34 C           5.1401    6.6514    0.2149 C.3     1  LIG1       -0.0110
     35 H           6.1018    6.4173    0.2036 H       1  LIG1        0.0322
     36 H           4.6303    5.8093    0.1059 H       1  LIG1        0.0322
     37 C           4.8556    7.5329   -0.9754 C.2     1  LIG1       -0.0896
     38 H           3.9916    7.9182   -1.0619 H       1  LIG1        0.0567
     39 C           5.7615    7.7893   -1.9040 C.2     1  LIG1       -0.1026
     40 H           6.6314    7.4132   -1.8364 H       1  LIG1        0.0532
     41 H           5.5420    8.3502   -2.6397 H       1  LIG1        0.0532
     42 C           5.0203    8.7777    1.4468 C.2     1  LIG1        0.3365
     43 C           5.9240    9.3724    5.1795 C.3     1  LIG1        0.0788
     44 H           5.7145    8.8358    5.9726 H       1  LIG1        0.0660
     45 H           5.4035   10.2029    5.1996 H       1  LIG1        0.0660
     46 H           6.8802    9.5868    5.1734 H       1  LIG1        0.0660
     47 CL          1.8416    5.3988    6.7395 Cl      1  LIG1       -0.0816
     48 CL          2.0130   10.6388    5.6235 Cl      1  LIG1       -0.0835
     49 N           2.9549    5.1680    3.6493 N.am    1  LIG1       -0.2452
     50 N           6.2952    9.1371    1.2110 N.am    1  LIG1       -0.3811
     51 H           6.3086    9.8863    0.6947 H       1  LIG1        0.3734
     52 H           6.7251    8.4625    0.7772 H       1  LIG1        0.3734
     53 H           6.7137    9.3054    2.0014 H       1  LIG1        0.3734
     54 O           1.8513    3.1802    4.4053 O.3     1  LIG1       -0.3642
     55 O           3.3804    4.4934    1.4994 O.2     1  LIG1       -0.2742
     56 O           5.5972    8.6387    4.0118 O.3     1  LIG1       -0.4948
     57 O           4.0968    9.5875    1.4138 O.2     1  LIG1       -0.2244
     58 O          -0.1105    7.2330    0.3326 O.3     1  LIG1       -0.3892
     59 H          -0.0723    6.6098   -0.2297 H       1  LIG1        0.2099
@<TRIPOS>BOND
     1    41    39    1
     2    39    40    1
     3    39    37    2
     4    38    37    1
     5    37    34    1
     6    59    58    1
     7    36    34    1
     8    20    18    1
     9    35    34    1
    10    34    23    1
    11    58    21    1
    12    51    50    1
    13    19    18    1
    14    52    50    1
    15    18    21    1
    16    18    17    1
    17    50    42    1
    18    50    53    1
    19    21    22    1
    20    57    42    2
    21    42    23    1
    22    55    16    2
    23    23    17    1
    24    23    24    1
    25    33    32    1
    26    17    16    1
    27    17     7    1
    28    16    49   am
    29    13    12    1
    30    32    24   ar
    31    32    30   ar
    32    24    25   ar
    33    15    12    1
    34     6     5    1
    35    12    14    1
    36    12    54    1
    37    31    30    1
    38     7     5   ar
    39     7     8   ar
    40    30    28   ar
    41    49     9    1
    42    49     8    1
    43    10     9    1
    44     5     4   ar
    45    25    56    1
    46    25    26   ar
    47    56    43    1
    48     9    54    1
    49     9    11    1
    50     8     1   ar
    51    28    26   ar
    52    28    29    1
    53    26    27    1
    54     4    48    1
    55     4     2   ar
    56    46    43    1
    57    43    45    1
    58    43    44    1
    59     1     2   ar
    60     1    47    1
    61     2     3    1
