@<TRIPOS>MOLECULE
3-Methoxycarbonyl-4-methylene-3-p-nitrobenzylpyrazoline-1
 33 34 0 0 0
SMALL
GASTEIGER

@<TRIPOS>ATOM
      1 O           0.0145   -0.5852   15.4564 O.2     1  LIG1       -0.1261
      2 O          -0.2277    1.5774   15.7138 O.2     1  LIG1       -0.1261
      3 O           1.4227    2.4657    6.4976 O.3     1  LIG1       -0.4660
      4 O           3.3422    1.6228    7.2673 O.2     1  LIG1       -0.2477
      5 N          -0.4318    3.0115    9.2206 N.2     1  LIG1       -0.1865
      6 N           0.7966    3.1233    9.0863 N.2     1  LIG1       -0.1690
      7 N           0.1222    0.5849   15.0617 N.pl3   1  LIG1        0.0564
      8 C           1.4594    1.7889    8.7668 C.3     1  LIG1        0.2043
      9 C           0.3004    0.8218    8.6473 C.2     1  LIG1       -0.0139
     10 C          -0.9116    1.6219    9.0031 C.3     1  LIG1        0.0840
     11 H          -1.5750    1.5936    8.2682 H       1  LIG1        0.0574
     12 H          -1.3338    1.2675    9.8248 H       1  LIG1        0.0574
     13 C           0.3657   -0.4584    8.3062 C.2     1  LIG1       -0.0948
     14 H          -0.4265   -0.9810    8.2668 H       1  LIG1        0.0536
     15 H           1.2054   -0.8529    8.1015 H       1  LIG1        0.0536
     16 C           2.4685    1.4534    9.8896 C.3     1  LIG1        0.0138
     17 H           2.9710    0.6390    9.6349 H       1  LIG1        0.0346
     18 H           3.1189    2.1957    9.9669 H       1  LIG1        0.0346
     19 C           1.8276    1.2263   11.2389 C.ar    1  LIG1       -0.0440
     20 C           1.5275    2.3145   12.0764 C.ar    1  LIG1       -0.0563
     21 H           1.7223    3.1978   11.7860 H       1  LIG1        0.0621
     22 C           0.9526    2.1138   13.3201 C.ar    1  LIG1       -0.0312
     23 H           0.7397    2.8492   13.8824 H       1  LIG1        0.0640
     24 C           0.6933    0.8092   13.7237 C.ar    1  LIG1        0.1262
     25 C           0.9747   -0.2926   12.9271 C.ar    1  LIG1       -0.0312
     26 H           0.7864   -1.1737   13.2278 H       1  LIG1        0.0640
     27 C           1.5378   -0.0710   11.6833 C.ar    1  LIG1       -0.0563
     28 H           1.7317   -0.8120   11.1204 H       1  LIG1        0.0621
     29 C           2.2050    1.9416    7.4388 C.2     1  LIG1        0.3412
     30 C           2.0043    2.5829    5.1707 C.3     1  LIG1        0.0817
     31 H           2.1607    1.6887    4.8024 H       1  LIG1        0.0661
     32 H           2.8547    3.0657    5.2288 H       1  LIG1        0.0661
     33 H           1.3889    3.0737    4.5865 H       1  LIG1        0.0661
@<TRIPOS>BOND
     1    33    30    1
     2    31    30    1
     3    30    32    1
     4    30     3    1
     5     3    29    1
     6     4    29    2
     7    29     8    1
     8    15    13    1
     9    14    13    1
    10    11    10    1
    11    13     9    2
    12     9     8    1
    13     9    10    1
    14     8     6    1
    15     8    16    1
    16    10     5    1
    17    10    12    1
    18     6     5    2
    19    17    16    1
    20    16    18    1
    21    16    19    1
    22    28    27    1
    23    19    27   ar
    24    19    20   ar
    25    27    25   ar
    26    21    20    1
    27    20    22   ar
    28    25    26    1
    29    25    24   ar
    30    22    24   ar
    31    22    23    1
    32    24     7    1
    33     7     1    2
    34     7     2    2
