@<TRIPOS>MOLECULE
?
 47 50 0 0 0
SMALL
GASTEIGER

@<TRIPOS>ATOM
      1 C           8.4069    7.9508    4.7716 C.2     1  LIG1        0.2188
      2 N           7.2147    7.9812    4.3435 N.2     1  LIG1       -0.2407
      3 C           6.4260    8.7705    5.3281 C.3     1  LIG1        0.0937
      4 C           7.4931    9.2991    6.3045 C.3     1  LIG1        0.1158
      5 H           7.6103   10.2764    6.2025 H       1  LIG1        0.0721
      6 H           7.2416    9.1023    7.2422 H       1  LIG1        0.0721
      7 O           8.7015    8.5932    5.9354 O.2     1  LIG1       -0.4737
      8 C           5.4326    7.8455    6.0192 C.3     1  LIG1       -0.0367
      9 H           4.7740    7.5275    5.3668 H       1  LIG1        0.0254
     10 H           4.9747    8.3346    6.7338 H       1  LIG1        0.0254
     11 H           5.9110    7.0794    6.4019 H       1  LIG1        0.0254
     12 C           5.7236    9.9020    4.6000 C.3     1  LIG1       -0.0367
     13 H           6.3908   10.4790    4.1715 H       1  LIG1        0.0254
     14 H           5.2005   10.4280    5.2411 H       1  LIG1        0.0254
     15 H           5.1268    9.5307    3.9179 H       1  LIG1        0.0254
     16 C           9.5338    7.2280    4.1351 C.ar    1  LIG1        0.0441
     17 C           9.2465    5.9985    3.5434 C.ar    1  LIG1       -0.0489
     18 H           8.3540    5.6749    3.5352 H       1  LIG1        0.0625
     19 C          10.2546    5.2495    2.9684 C.ar    1  LIG1       -0.0607
     20 H          10.0559    4.4128    2.5658 H       1  LIG1        0.0618
     21 C          11.5538    5.7227    2.9811 C.ar    1  LIG1       -0.0580
     22 H          12.2432    5.2001    2.5889 H       1  LIG1        0.0620
     23 C          11.8720    6.9496    3.5561 C.ar    1  LIG1       -0.0389
     24 C          13.2964    7.4525    3.5311 C.3     1  LIG1       -0.0268
     25 H          13.3046    8.3693    3.1560 H       1  LIG1        0.0313
     26 H          13.8277    6.8756    2.9266 H       1  LIG1        0.0313
     27 C          13.9685    7.4760    4.9081 C.3     1  LIG1       -0.0456
     28 H          14.7979    8.0138    4.8562 H       1  LIG1        0.0271
     29 H          14.2204    6.5526    5.1628 H       1  LIG1        0.0271
     30 C          13.0518    8.0669    5.9914 C.3     1  LIG1       -0.0336
     31 H          12.4413    7.3596    6.3166 H       1  LIG1        0.0308
     32 H          13.6073    8.3624    6.7569 H       1  LIG1        0.0308
     33 C          12.2369    9.2280    5.5036 C.2     1  LIG1       -0.0757
     34 H          12.4705   10.1015    5.7956 H       1  LIG1        0.0578
     35 C          11.1938    9.0881    4.6739 C.2     1  LIG1       -0.0137
     36 C          10.8509    7.7316    4.1375 C.ar    1  LIG1       -0.0022
     37 C          10.3965   10.2511    4.2076 C.ar    1  LIG1       -0.0176
     38 C          10.1668   11.3569    5.0319 C.ar    1  LIG1       -0.0540
     39 H          10.5288   11.3694    5.9097 H       1  LIG1        0.0624
     40 C           9.4205   12.4319    4.5890 C.ar    1  LIG1       -0.0612
     41 H           9.2886   13.1804    5.1582 H       1  LIG1        0.0618
     42 C           8.8631   12.4253    3.3183 C.ar    1  LIG1       -0.0617
     43 H           8.3320   13.1549    3.0223 H       1  LIG1        0.0618
     44 C           9.0901   11.3413    2.4889 C.ar    1  LIG1       -0.0612
     45 H           8.7211   11.3335    1.6137 H       1  LIG1        0.0618
     46 C           9.8512   10.2669    2.9230 C.ar    1  LIG1       -0.0540
     47 H          10.0033    9.5330    2.3399 H       1  LIG1        0.0624
@<TRIPOS>BOND
     1    45    44    1
     2    47    46    1
     3    44    46   ar
     4    44    42   ar
     5    20    19    1
     6    22    21    1
     7    46    37   ar
     8    26    24    1
     9    19    21   ar
    10    19    17   ar
    11    21    23   ar
    12    43    42    1
    13    25    24    1
    14    42    40   ar
    15    24    23    1
    16    24    27    1
    17    18    17    1
    18    17    16   ar
    19    23    36   ar
    20    15    12    1
    21    16    36   ar
    22    16     1    1
    23    36    35    1
    24    13    12    1
    25    37    35    1
    26    37    38   ar
    27     2     1    2
    28     2     3    1
    29    40    38   ar
    30    40    41    1
    31    12    14    1
    32    12     3    1
    33    35    33    2
    34     1     7    1
    35    28    27    1
    36    27    29    1
    37    27    30    1
    38    38    39    1
    39     3     8    1
    40     3     4    1
    41     9     8    1
    42    33    34    1
    43    33    30    1
    44     7     4    1
    45    30    31    1
    46    30    32    1
    47     8    11    1
    48     8    10    1
    49     5     4    1
    50     4     6    1
