@<TRIPOS>MOLECULE
?
 58 59 0 0 0
SMALL
GASTEIGER

@<TRIPOS>ATOM
      1 C          14.8675   12.3149   10.0775 C.ar    1  LIG1        0.1705
      2 C          14.8654   13.3182    9.1013 C.ar    1  LIG1        0.1590
      3 C          14.0107   13.2331    8.0222 C.ar    1  LIG1       -0.0165
      4 H          14.0225   13.9085    7.3542 H       1  LIG1        0.0655
      5 C          13.1347   12.1658    7.9101 C.ar    1  LIG1       -0.0574
      6 H          12.5394   12.1144    7.1706 H       1  LIG1        0.0619
      7 C          13.1255   11.1754    8.8711 C.ar    1  LIG1       -0.0459
      8 H          12.5230   10.4457    8.7865 H       1  LIG1        0.0626
      9 C          13.9921   11.2302    9.9710 C.ar    1  LIG1        0.0817
     10 C          14.0526   10.1682   11.0067 C.2     1  LIG1        0.2477
     11 C          13.2340    8.0305   11.8930 C.3     1  LIG1        0.0119
     12 H          12.6524    8.2507   12.6641 H       1  LIG1        0.0462
     13 H          14.1554    7.9012   12.2310 H       1  LIG1        0.0462
     14 C          12.7496    6.7499   11.2478 C.3     1  LIG1       -0.0374
     15 H          13.3379    6.5297   10.4820 H       1  LIG1        0.0280
     16 H          11.8339    6.8891   10.8982 H       1  LIG1        0.0280
     17 C          12.7401    5.5749   12.2272 C.3     1  LIG1       -0.0516
     18 H          13.6726    5.3517   12.4743 H       1  LIG1        0.0266
     19 H          12.2642    5.8454   13.0527 H       1  LIG1        0.0266
     20 C          12.0692    4.3386   11.6494 C.3     1  LIG1       -0.0530
     21 H          12.4497    4.1609   10.7528 H       1  LIG1        0.0265
     22 H          11.1046    4.5262   11.5332 H       1  LIG1        0.0265
     23 C          12.2230    3.0777   12.5045 C.3     1  LIG1       -0.0530
     24 H          11.7254    2.3391   12.0719 H       1  LIG1        0.0265
     25 H          13.1800    2.8230   12.5233 H       1  LIG1        0.0265
     26 C          11.7313    3.2219   13.9367 C.3     1  LIG1       -0.0516
     27 H          10.9278    3.7995   13.9479 H       1  LIG1        0.0266
     28 H          12.4311    3.6652   14.4774 H       1  LIG1        0.0266
     29 C          11.3865    1.8642   14.5710 C.3     1  LIG1       -0.0374
     30 H          12.0807    1.2007   14.3289 H       1  LIG1        0.0280
     31 H          11.3786    1.9531   15.5577 H       1  LIG1        0.0280
     32 C          10.0357    1.3745   14.0977 C.3     1  LIG1        0.0119
     33 H           9.3395    2.0064   14.4100 H       1  LIG1        0.0462
     34 H          10.0230    1.3794   13.1078 H       1  LIG1        0.0462
     35 C           9.7677   -1.0417   13.7999 C.2     1  LIG1        0.2477
     36 C           9.3591   -2.3540   14.3661 C.ar    1  LIG1        0.0817
     37 C           9.2425   -2.5998   15.7448 C.ar    1  LIG1       -0.0459
     38 H           9.4610   -1.9146   16.3657 H       1  LIG1        0.0626
     39 C           8.8134   -3.8272   16.2030 C.ar    1  LIG1       -0.0574
     40 H           8.7534   -3.9891   17.1369 H       1  LIG1        0.0619
     41 C           8.4684   -4.8323   15.3020 C.ar    1  LIG1       -0.0165
     42 H           8.1631   -5.6736   15.6204 H       1  LIG1        0.0655
     43 C           8.5723   -4.6024   13.9458 C.ar    1  LIG1        0.1590
     44 C           9.0439   -3.3856   13.4768 C.ar    1  LIG1        0.1705
     45 N          13.2186    9.1385   10.9420 N.am    1  LIG1       -0.3112
     46 H          12.6256    9.1226   10.2922 H       1  LIG1        0.1490
     47 N           9.6989    0.0339   14.5660 N.am    1  LIG1       -0.3112
     48 H           9.4372   -0.0632   15.4001 H       1  LIG1        0.1490
     49 O          15.7433   12.4801   11.0968 O.3     1  LIG1       -0.5028
     50 H          15.7778   11.7757   11.5531 H       1  LIG1        0.2923
     51 O          15.7135   14.3783    9.2099 O.3     1  LIG1       -0.5033
     52 H          16.1673   14.3025    9.9127 H       1  LIG1        0.2923
     53 O          14.9102   10.2496   11.9250 O.2     1  LIG1       -0.2701
     54 O          10.1591   -0.9761   12.6053 O.2     1  LIG1       -0.2701
     55 O           8.1651   -5.5737   13.0604 O.3     1  LIG1       -0.5033
     56 H           8.3389   -5.3280   12.2754 H       1  LIG1        0.2923
     57 O           9.1462   -3.2683   12.1265 O.3     1  LIG1       -0.5028
     58 H           9.5214   -2.5416   11.9357 H       1  LIG1        0.2923
@<TRIPOS>BOND
     1     6     5    1
     2     4     3    1
     3     5     3   ar
     4     5     7   ar
     5     3     2   ar
     6     8     7    1
     7     7     9   ar
     8     2    51    1
     9     2     1   ar
    10    51    52    1
    11     9     1   ar
    12     9    10    1
    13     1    49    1
    14    46    45    1
    15    15    14    1
    16    21    20    1
    17    16    14    1
    18    45    10   am
    19    45    11    1
    20    10    53    2
    21    49    50    1
    22    14    11    1
    23    14    17    1
    24    22    20    1
    25    20    17    1
    26    20    23    1
    27    11    13    1
    28    11    12    1
    29    58    57    1
    30    24    23    1
    31    57    44    1
    32    17    18    1
    33    17    19    1
    34    56    55    1
    35    23    25    1
    36    23    26    1
    37    54    35    2
    38    55    43    1
    39    34    32    1
    40    44    43   ar
    41    44    36   ar
    42    35    36    1
    43    35    47   am
    44    26    27    1
    45    26    28    1
    46    26    29    1
    47    43    41   ar
    48    32    33    1
    49    32    47    1
    50    32    29    1
    51    30    29    1
    52    36    37   ar
    53    47    48    1
    54    29    31    1
    55    41    42    1
    56    41    39   ar
    57    37    39   ar
    58    37    38    1
    59    39    40    1
