@<TRIPOS>MOLECULE
?
 29 29 0 0 0
SMALL
GASTEIGER

@<TRIPOS>ATOM
      1 C           6.9264    4.8049   12.1042 C.ar    1  LIG1        0.2079
      2 C           7.2491    3.6587   12.7283 C.ar    1  LIG1        0.0006
      3 C           8.6145    3.8017   13.1044 C.ar    1  LIG1       -0.0190
      4 C           9.0316    5.0105   12.6766 C.ar    1  LIG1        0.1044
      5 C          10.3371    5.7237   12.7137 C.3     1  LIG1       -0.0063
      6 C           5.6790    5.0995    9.9499 C.3     1  LIG1        0.0479
      7 C           5.9696    3.6793    9.5050 C.3     1  LIG1        0.0623
      8 C           7.4292    3.3222    9.5328 C.2     1  LIG1        0.3063
      9 C           3.4032    4.7326   12.6320 C.3     1  LIG1        0.5387
     10 H           6.6319    3.0149   12.8563 H       1  LIG1        0.0669
     11 H           9.0259    3.2504   13.5416 H       1  LIG1        0.0652
     12 H          10.6468    5.7886   11.8686 H       1  LIG1        0.0308
     13 H          10.9792    5.1627   13.2890 H       1  LIG1        0.0308
     14 H          10.2589    6.6558   13.1894 H       1  LIG1        0.0308
     15 H           4.8091    5.2775    9.6767 H       1  LIG1        0.0488
     16 H           6.3160    5.6508    9.5293 H       1  LIG1        0.0488
     17 H           5.7716    3.6007    8.5951 H       1  LIG1        0.0394
     18 H           5.4923    3.1240    9.9926 H       1  LIG1        0.0394
     19 H           8.5470    1.9410    9.6174 H       1  LIG1        0.2951
     20 F           2.9357    4.2031   11.5106 F       1  LIG1       -0.1491
     21 F           3.9554    3.7804   13.3529 F       1  LIG1       -0.1491
     22 F           2.3984    5.2551   13.3071 F       1  LIG1       -0.1491
     23 N           5.7659    5.2408   11.4258 N.pl3   1  LIG1       -0.1678
     24 O           7.9948    5.6646   12.0548 O.2     1  LIG1       -0.4450
     25 O           7.6472    2.0266    9.6139 O.3     1  LIG1       -0.4806
     26 O           8.3093    4.1594    9.4370 O.2     1  LIG1       -0.2510
     27 O           5.1439    6.4709   13.4944 O.2     1  LIG1       -0.1464
     28 O           3.9407    6.9159   11.3599 O.2     1  LIG1       -0.1464
     29 S           4.6321    6.0379   12.2397 S.O2    1  LIG1        0.1457
@<TRIPOS>BOND
     1    17     7    1
     2    26     8    2
     3     7     8    1
     4     7     6    1
     5     7    18    1
     6    16     6    1
     7     8    25    1
     8    25    19    1
     9    15     6    1
    10     6    23    1
    11    28    29    2
    12    23     1    1
    13    23    29    1
    14    20     9    1
    15    12     5    1
    16    24     1   ar
    17    24     4   ar
    18     1     2   ar
    19    29     9    1
    20    29    27    2
    21     9    22    1
    22     9    21    1
    23     4     5    1
    24     4     3   ar
    25     5    14    1
    26     5    13    1
    27     2    10    1
    28     2     3   ar
    29     3    11    1
