@<TRIPOS>MOLECULE
?
 46 47 0 0 0
SMALL
GASTEIGER

@<TRIPOS>ATOM
      1 S           6.4388    7.2055    6.3490 S.O2    1  LIG1        0.1129
      2 O           6.9356    7.4907   -0.1670 O.2     1  LIG1       -0.2265
      3 O           5.5037    7.4182    1.4882 O.3     1  LIG1       -0.4408
      4 O           5.3780    4.6911    3.5888 O.2     1  LIG1       -0.2477
      5 O           7.3002    5.3847    2.6838 O.3     1  LIG1       -0.4630
      6 O           5.4652    7.0916    5.0878 O.3     1  LIG1       -0.2154
      7 O           7.4472    8.1510    6.0402 O.2     1  LIG1       -0.1419
      8 O           5.5324    7.4222    7.4169 O.2     1  LIG1       -0.1419
      9 N           7.1111    9.0673    1.4300 N.am    1  LIG1       -0.2810
     10 C           5.3024    9.3015    2.9924 C.3     1  LIG1        0.0058
     11 C           6.6939    9.7342    2.6407 C.3     1  LIG1        0.0184
     12 C           6.5599    7.9928    0.8758 C.2     1  LIG1        0.4009
     13 C           5.1235    7.8096    2.8348 C.3     1  LIG1        0.1523
     14 C           3.6754    7.3994    2.9792 C.3     1  LIG1       -0.0216
     15 C           6.0444    7.0021    3.7780 C.3     1  LIG1        0.2228
     16 C           6.1777    5.5431    3.3501 C.2     1  LIG1        0.3427
     17 C           7.5628    4.0607    2.1031 C.3     1  LIG1        0.0897
     18 C           8.8329    4.1364    1.3663 C.3     1  LIG1       -0.0306
     19 C           7.1408    5.6147    6.4623 C.ar    1  LIG1        0.1171
     20 C           8.4076    5.3654    5.9944 C.ar    1  LIG1       -0.0341
     21 C           8.8997    4.0688    6.0556 C.ar    1  LIG1       -0.0570
     22 C           8.1621    3.0555    6.5927 C.ar    1  LIG1       -0.0503
     23 C           6.9125    3.3404    7.0600 C.ar    1  LIG1       -0.0570
     24 C           6.3923    4.6002    7.0034 C.ar    1  LIG1       -0.0341
     25 C           8.7088    1.6445    6.7042 C.3     1  LIG1       -0.0397
     26 H           5.1108    9.5535    3.8890 H       1  LIG1        0.0320
     27 H           4.6698    9.7307    2.3988 H       1  LIG1        0.0320
     28 H           7.3220    9.5326    3.3785 H       1  LIG1        0.0464
     29 H           6.7240   10.6754    2.5178 H       1  LIG1        0.0464
     30 H           7.8261    9.3358    1.0590 H       1  LIG1        0.1520
     31 H           3.1484    7.8110    2.2667 H       1  LIG1        0.0269
     32 H           3.3493    7.7423    3.7899 H       1  LIG1        0.0269
     33 H           3.5735    6.4575    2.9044 H       1  LIG1        0.0269
     34 H           6.8698    7.4006    3.8229 H       1  LIG1        0.0779
     35 H           7.6225    3.4826    2.8796 H       1  LIG1        0.0694
     36 H           6.7916    3.9094    1.5777 H       1  LIG1        0.0694
     37 H           9.5655    4.3078    1.9809 H       1  LIG1        0.0262
     38 H           9.0054    3.3102    0.8921 H       1  LIG1        0.0262
     39 H           8.8575    4.9603    0.7467 H       1  LIG1        0.0262
     40 H           8.8909    6.0499    5.6683 H       1  LIG1        0.0637
     41 H           9.7315    3.9725    5.7327 H       1  LIG1        0.0621
     42 H           6.4608    2.7137    7.3964 H       1  LIG1        0.0621
     43 H           5.5420    4.7877    7.3055 H       1  LIG1        0.0637
     44 H           9.6615    1.8314    6.2565 H       1  LIG1        0.0278
     45 H           8.2537    1.0858    6.0632 H       1  LIG1        0.0278
     46 H           8.8113    1.4997    7.5550 H       1  LIG1        0.0278
@<TRIPOS>BOND
     1     2    12    2
     2    39    18    1
     3    12     9   am
     4    12     3    1
     5    38    18    1
     6    30     9    1
     7    18    37    1
     8    18    17    1
     9     9    11    1
    10     3    13    1
    11    36    17    1
    12    17     5    1
    13    17    35    1
    14    31    14    1
    15    27    10    1
    16    29    11    1
    17    11    10    1
    18    11    28    1
    19     5    16    1
    20    13    14    1
    21    13    10    1
    22    13    15    1
    23    33    14    1
    24    14    32    1
    25    10    26    1
    26    16     4    2
    27    16    15    1
    28    15    34    1
    29    15     6    1
    30     6     1    1
    31    40    20    1
    32    41    21    1
    33    20    21   ar
    34    20    19   ar
    35     7     1    2
    36    21    22   ar
    37    45    25    1
    38    44    25    1
    39     1    19    1
    40     1     8    2
    41    19    24   ar
    42    22    25    1
    43    22    23   ar
    44    25    46    1
    45    24    23   ar
    46    24    43    1
    47    23    42    1
