@<TRIPOS>MOLECULE
C14 H16 O4
 34 35 0 0 0
SMALL
GASTEIGER

@<TRIPOS>ATOM
      1 O         -14.8933   -0.5412   -7.1520 O.2     1  LIG1       -0.2897
      2 O         -17.5243   -1.3571   -3.8618 O.2     1  LIG1       -0.4941
      3 O         -14.7377   -0.8969   -3.5985 O.3     1  LIG1       -0.3625
      4 O         -13.5649    1.4593   -4.7596 O.3     1  LIG1       -0.3841
      5 C         -14.2357   -0.8875   -4.9217 C.3     1  LIG1        0.1504
      6 C         -15.2828   -0.5250   -5.9797 C.2     1  LIG1        0.1906
      7 C         -16.5933    0.0050   -5.6386 C.2     1  LIG1        0.0207
      8 C         -17.4909   -0.2877   -4.6734 C.2     1  LIG1        0.0981
      9 C         -16.5747   -2.4215   -4.0211 C.3     1  LIG1        0.1124
     10 C         -15.3264   -2.1375   -3.2283 C.3     1  LIG1        0.0827
     11 C         -18.6947    0.5624   -4.4147 C.3     1  LIG1       -0.0068
     12 C         -13.0938    0.1464   -5.0014 C.3     1  LIG1        0.1135
     13 C         -12.0127   -0.1893   -3.9893 C.ar    1  LIG1       -0.0162
     14 C         -11.2306   -1.3098   -4.1561 C.ar    1  LIG1       -0.0560
     15 C         -10.2414   -1.6218   -3.2218 C.ar    1  LIG1       -0.0614
     16 C         -10.0385   -0.8277   -2.1366 C.ar    1  LIG1       -0.0617
     17 C         -10.8300    0.2678   -1.9511 C.ar    1  LIG1       -0.0614
     18 C         -11.8121    0.6035   -2.8797 C.ar    1  LIG1       -0.0560
     19 H         -13.8226   -1.7564   -5.1635 H       1  LIG1        0.0709
     20 H         -16.8344    0.7412   -6.2130 H       1  LIG1        0.0686
     21 H         -17.0324   -3.2200   -3.6641 H       1  LIG1        0.0719
     22 H         -16.3732   -2.5349   -5.0042 H       1  LIG1        0.0719
     23 H         -15.5370   -2.0553   -2.2865 H       1  LIG1        0.0594
     24 H         -14.7023   -2.8899   -3.3174 H       1  LIG1        0.0594
     25 H         -18.7640    1.3017   -5.0229 H       1  LIG1        0.0308
     26 H         -18.7570    0.8844   -3.4298 H       1  LIG1        0.0308
     27 H         -19.4930    0.0685   -4.5450 H       1  LIG1        0.0308
     28 H         -12.7239    0.0872   -5.8851 H       1  LIG1        0.0674
     29 H         -11.3594   -1.8871   -4.9386 H       1  LIG1        0.0621
     30 H          -9.8244   -2.4103   -3.3267 H       1  LIG1        0.0618
     31 H          -9.3448   -1.0588   -1.4713 H       1  LIG1        0.0618
     32 H         -10.6887    0.9093   -1.1808 H       1  LIG1        0.0618
     33 H         -12.3579    1.3951   -2.7645 H       1  LIG1        0.0621
     34 H         -13.9188    1.8249   -5.4821 H       1  LIG1        0.2104
@<TRIPOS>BOND
     1     1     6    2
     2    20     7    1
     3     6     7    1
     4     6     5    1
     5    28    12    1
     6     7     8    2
     7    34     4    1
     8    19     5    1
     9    25    11    1
    10    22     9    1
    11    12     5    1
    12    12     4    1
    13    12    13    1
    14    29    14    1
    15     5     3    1
    16     8    11    1
    17     8     2    1
    18    27    11    1
    19    11    26    1
    20    14    13   ar
    21    14    15   ar
    22     9     2    1
    23     9    21    1
    24     9    10    1
    25    13    18   ar
    26     3    10    1
    27    30    15    1
    28    24    10    1
    29    10    23    1
    30    15    16   ar
    31    18    33    1
    32    18    17   ar
    33    16    17   ar
    34    16    31    1
    35    17    32    1
