@<TRIPOS>MOLECULE
C28 H30 O2
 60 63 0 0 0
SMALL
GASTEIGER

@<TRIPOS>ATOM
      1 O           0.5065    0.8219    5.8543 O.3     1  LIG1       -0.5061
      2 O           3.0964    3.4454    6.8309 O.3     1  LIG1       -0.5061
      3 C           1.0201    2.9807    4.8835 C.ar    1  LIG1        0.0353
      4 C           0.1308    2.0775    5.4435 C.ar    1  LIG1        0.1253
      5 C          -1.2321    2.3844    5.5928 C.ar    1  LIG1       -0.0190
      6 H          -1.8159    1.7462    5.9854 H       1  LIG1        0.0654
      7 C          -1.7269    3.5829    5.1847 C.ar    1  LIG1       -0.0505
      8 H          -2.6526    3.7700    5.2877 H       1  LIG1        0.0625
      9 C          -0.8672    4.5592    4.6029 C.ar    1  LIG1       -0.0168
     10 C          -1.3474    5.8097    4.1627 C.ar    1  LIG1       -0.0508
     11 H          -2.2762    5.9959    4.2438 H       1  LIG1        0.0626
     12 C          -0.5320    6.7666    3.6260 C.ar    1  LIG1       -0.0468
     13 C           0.8512    6.4689    3.5204 C.ar    1  LIG1       -0.0580
     14 H           1.4406    7.1256    3.1703 H       1  LIG1        0.0620
     15 C           1.3599    5.2503    3.9143 C.ar    1  LIG1       -0.0531
     16 H           2.2888    5.0741    3.8139 H       1  LIG1        0.0624
     17 C           0.5159    4.2572    4.4665 C.ar    1  LIG1       -0.0065
     18 C          -1.0696    8.0800    3.1240 C.3     1  LIG1       -0.0277
     19 H          -0.4832    8.8089    3.4483 H       1  LIG1        0.0313
     20 H          -1.9698    8.2243    3.5114 H       1  LIG1        0.0313
     21 C          -1.1676    8.1673    1.6064 C.3     1  LIG1       -0.0493
     22 H          -0.2747    7.9895    1.2164 H       1  LIG1        0.0268
     23 H          -1.7823    7.4611    1.2846 H       1  LIG1        0.0268
     24 C          -1.6628    9.5142    1.1057 C.3     1  LIG1       -0.0556
     25 H          -2.5461    9.7046    1.5099 H       1  LIG1        0.0263
     26 H          -1.0354   10.2196    1.4043 H       1  LIG1        0.0263
     27 C          -1.7867    9.5687   -0.3952 C.3     1  LIG1       -0.0653
     28 H          -0.8979    9.4832   -0.8006 H       1  LIG1        0.0230
     29 H          -2.1854   10.4242   -0.6603 H       1  LIG1        0.0230
     30 H          -2.3571    8.8332   -0.7028 H       1  LIG1        0.0230
     31 C           2.4459    2.5807    4.6789 C.ar    1  LIG1        0.0353
     32 C           3.3866    2.7593    5.6636 C.ar    1  LIG1        0.1253
     33 C           4.7086    2.2687    5.5490 C.ar    1  LIG1       -0.0190
     34 H           5.3298    2.3928    6.2570 H       1  LIG1        0.0654
     35 C           5.0827    1.6095    4.4060 C.ar    1  LIG1       -0.0505
     36 H           5.9594    1.2497    4.3404 H       1  LIG1        0.0625
     37 C           4.1819    1.4568    3.3145 C.ar    1  LIG1       -0.0168
     38 C           4.5859    0.8681    2.0891 C.ar    1  LIG1       -0.0508
     39 H           5.4727    0.5376    2.0054 H       1  LIG1        0.0626
     40 C           3.7272    0.7615    1.0156 C.ar    1  LIG1       -0.0468
     41 C           2.4088    1.2488    1.1752 C.ar    1  LIG1       -0.0580
     42 H           1.8035    1.1801    0.4466 H       1  LIG1        0.0620
     43 C           1.9758    1.8183    2.3427 C.ar    1  LIG1       -0.0531
     44 H           1.0819    2.1337    2.4109 H       1  LIG1        0.0624
     45 C           2.8550    1.9391    3.4535 C.ar    1  LIG1       -0.0065
     46 C           4.1769    0.2038   -0.3154 C.3     1  LIG1       -0.0277
     47 H           3.4650   -0.3808   -0.6771 H       1  LIG1        0.0313
     48 H           4.9838   -0.3514   -0.1763 H       1  LIG1        0.0313
     49 C           4.4929    1.3008   -1.3399 C.3     1  LIG1       -0.0493
     50 H           3.6985    1.8812   -1.4455 H       1  LIG1        0.0268
     51 H           5.2322    1.8611   -0.9937 H       1  LIG1        0.0268
     52 C           4.8879    0.7473   -2.7031 C.3     1  LIG1       -0.0556
     53 H           4.1367    0.2155   -3.0660 H       1  LIG1        0.0263
     54 H           5.6637    0.1417   -2.5937 H       1  LIG1        0.0263
     55 C           5.2479    1.8485   -3.6968 C.3     1  LIG1       -0.0653
     56 H           4.4825    2.4490   -3.8100 H       1  LIG1        0.0230
     57 H           5.4788    1.4459   -4.5605 H       1  LIG1        0.0230
     58 H           6.0152    2.3559   -3.3582 H       1  LIG1        0.0230
     59 H           1.4684    0.6458    5.7151 H       1  LIG1        0.2922
     60 H           2.2849    3.8832    6.8993 H       1  LIG1        0.2922
@<TRIPOS>BOND
     1    57    55    1
     2    56    55    1
     3    55    58    1
     4    55    52    1
     5    53    52    1
     6    52    54    1
     7    52    49    1
     8    50    49    1
     9    49    51    1
    10    49    46    1
    11    28    27    1
    12    30    27    1
    13    47    46    1
    14    29    27    1
    15    27    24    1
    16    46    48    1
    17    46    40    1
    18    42    41    1
    19    40    41   ar
    20    40    38   ar
    21    24    26    1
    22    24    25    1
    23    24    21    1
    24    41    43   ar
    25    22    21    1
    26    23    21    1
    27    21    18    1
    28    39    38    1
    29    38    37   ar
    30    43    44    1
    31    43    45   ar
    32    18    19    1
    33    18    20    1
    34    18    12    1
    35    14    13    1
    36    37    45   ar
    37    37    35   ar
    38    45    31   ar
    39    13    12   ar
    40    13    15   ar
    41    12    10   ar
    42    16    15    1
    43    15    17   ar
    44    10    11    1
    45    10     9   ar
    46    36    35    1
    47    35    33   ar
    48    17     9   ar
    49    17     3   ar
    50     9     7   ar
    51    31     3    1
    52    31    32   ar
    53     3     4   ar
    54     7     8    1
    55     7     5   ar
    56     4     5   ar
    57     4     1    1
    58    33    32   ar
    59    33    34    1
    60     5     6    1
    61    32     2    1
    62    59     1    1
    63     2    60    1
