@<TRIPOS>MOLECULE
?
 29 30 0 0 0
SMALL
GASTEIGER

@<TRIPOS>ATOM
      1 F           0.0880   -0.0402    2.2517 F       1  LIG1       -0.1692
      2 F           1.9638    0.9756    1.9787 F       1  LIG1       -0.1692
      3 N           0.4770    0.2277    6.3557 N.am    1  LIG1       -0.2243
      4 O           0.1506    2.4790    6.6999 O.2     1  LIG1       -0.2686
      5 N           0.1597    0.1686    4.9898 N.3     1  LIG1       -0.2285
      6 H          -0.6556    0.5241    4.8840 H       1  LIG1        0.1448
      7 F           1.8962   -0.9301    2.9697 F       1  LIG1       -0.1692
      8 N           4.0027   -0.4372    6.7134 N.1     1  LIG1       -0.1965
      9 C           3.0377   -1.0584    6.7073 C.1     1  LIG1        0.0647
     10 C           0.5827   -1.0188    7.1137 C.3     1  LIG1        0.0807
     11 H          -0.2481   -1.5593    6.9843 H       1  LIG1        0.0576
     12 C           0.4765    0.8802    8.5302 C.ar    1  LIG1        0.0432
     13 C           0.4240    1.6132    9.7074 C.ar    1  LIG1       -0.0493
     14 H           0.3048    2.5560    9.6983 H       1  LIG1        0.0625
     15 C           0.3390    1.3468    7.1307 C.2     1  LIG1        0.2610
     16 C           0.5514    0.9135   10.9011 C.ar    1  LIG1       -0.0610
     17 H           0.5188    1.3838   11.7257 H       1  LIG1        0.0618
     18 C           1.0896    0.9426    4.1564 C.3     1  LIG1        0.1091
     19 H           1.9660    1.0198    4.6104 H       1  LIG1        0.0529
     20 H           0.7335    1.8539    4.0093 H       1  LIG1        0.0529
     21 C           0.7708   -1.1906    9.7259 C.ar    1  LIG1       -0.0560
     22 H           0.8939   -2.1327    9.7353 H       1  LIG1        0.0621
     23 C           0.6321   -0.5008    8.5321 C.ar    1  LIG1       -0.0125
     24 C           1.8025   -1.8420    6.6704 C.3     1  LIG1        0.0589
     25 H           1.8979   -2.6281    7.2642 H       1  LIG1        0.0440
     26 H           1.6545   -2.1730    5.7493 H       1  LIG1        0.0440
     27 C           0.7254   -0.4633   10.9068 C.ar    1  LIG1       -0.0614
     28 H           0.8150   -0.9173   11.7363 H       1  LIG1        0.0618
     29 C           1.2541    0.2401    2.8466 C.3     1  LIG1        0.4037
@<TRIPOS>BOND
     1     2    29    1
     2     1    29    1
     3    29     7    1
     4    29    18    1
     5    20    18    1
     6    18    19    1
     7    18     5    1
     8     6     5    1
     9     5     3    1
    10    26    24    1
    11     3    10    1
    12     3    15   am
    13    24     9    1
    14    24    10    1
    15    24    25    1
    16     4    15    2
    17     9     8    3
    18    11    10    1
    19    10    23    1
    20    15    12    1
    21    12    23   ar
    22    12    13   ar
    23    23    21   ar
    24    14    13    1
    25    13    16   ar
    26    21    22    1
    27    21    27   ar
    28    16    27   ar
    29    16    17    1
    30    27    28    1
