@<TRIPOS>MOLECULE
C7 H10 B N
 38 39 0 0 0
SMALL
GASTEIGER

@<TRIPOS>ATOM
      1 N          -2.5679    2.0406    9.4508 N.ar    1  LIG1        0.0000
      2 N          -2.8604   -0.5127   13.6273 N.pl3   1  LIG1        0.0000
      3 C          -3.1924    1.1666   10.3058 C.ar    1  LIG1        0.0000
      4 C          -3.1284    1.2302   11.6807 C.ar    1  LIG1        0.0000
      5 C          -2.3658    2.2569   12.1953 C.ar    1  LIG1        0.0000
      6 C          -1.7111    3.1601   11.3795 C.ar    1  LIG1        0.0000
      7 C          -1.8237    3.0380   10.0183 C.ar    1  LIG1        0.0000
      8 C          -4.6975   -0.9618   11.8445 C.3     1  LIG1        0.0000
      9 C          -4.9938    1.1170   13.5269 C.3     1  LIG1        0.0000
     10 C          -1.6261   -0.8702   13.1739 C.2     1  LIG1        0.0000
     11 C          -0.7108   -1.6208   13.8745 C.2     1  LIG1        0.0000
     12 C          -1.1051   -2.0190   15.1385 C.3     1  LIG1        0.0000
     13 C          -2.3472   -1.6755   15.6436 C.2     1  LIG1        0.0000
     14 C          -3.2005   -0.9274   14.8743 C.2     1  LIG1        0.0000
     15 C           1.7915   -0.7849   13.7583 C.3     1  LIG1        0.0000
     16 C           1.2748   -3.4146   13.8291 C.3     1  LIG1        0.0000
     17 B          -3.9605    0.2201   12.6550 B       1  LIG1        0.0000
     18 B           0.7891   -1.9592   13.3113 B       1  LIG1        0.0000
     19 H          -3.6976    0.5089    9.9338 H       1  LIG1        0.0000
     20 H          -2.2844    2.3154   13.1570 H       1  LIG1        0.0000
     21 H          -1.2274    3.8929   11.7092 H       1  LIG1        0.0000
     22 H          -1.3998    3.6385    9.4265 H       1  LIG1        0.0000
     23 H          -5.4252   -0.6107   11.2336 H       1  LIG1        0.0000
     24 H          -4.0265   -1.5394   11.3605 H       1  LIG1        0.0000
     25 H          -5.1582   -1.5903   12.4701 H       1  LIG1        0.0000
     26 H          -5.6335    0.5216   14.1187 H       1  LIG1        0.0000
     27 H          -5.5867    1.6284   12.9034 H       1  LIG1        0.0000
     28 H          -4.4855    1.7684   14.1081 H       1  LIG1        0.0000
     29 H          -1.4062   -0.5598   12.2904 H       1  LIG1        0.0000
     30 H          -0.5000   -2.5317   15.6510 H       1  LIG1        0.0000
     31 H          -2.5912   -1.9465   16.5493 H       1  LIG1        0.0000
     32 H          -4.0693   -0.6743   15.2072 H       1  LIG1        0.0000
     33 H           1.4590    0.0763   13.5374 H       1  LIG1        0.0000
     34 H           2.6902   -0.8778   13.3049 H       1  LIG1        0.0000
     35 H           1.8867   -0.7888   14.7422 H       1  LIG1        0.0000
     36 H           2.1114   -3.7275   13.3049 H       1  LIG1        0.0000
     37 H           0.6315   -4.1855   13.7277 H       1  LIG1        0.0000
     38 H           1.4533   -3.4349   14.7633 H       1  LIG1        0.0000
@<TRIPOS>BOND
     1    22     7    1
     2     1     7   ar
     3     1     3   ar
     4    19     3    1
     5     7     6   ar
     6     3     4   ar
     7    23     8    1
     8    24     8    1
     9     6    21    1
    10     6     5   ar
    11     4     5   ar
    12     4    17    1
    13     8    25    1
    14     8    17    1
    15     5    20    1
    16    29    10    1
    17    17     9    1
    18    17     2    1
    19    27     9    1
    20    10     2    1
    21    10    11    2
    22    36    16    1
    23    34    15    1
    24    18    15    1
    25    18    16    1
    26    18    11    1
    27     9    28    1
    28     9    26    1
    29    33    15    1
    30     2    14    1
    31    37    16    1
    32    15    35    1
    33    16    38    1
    34    11    12    1
    35    14    32    1
    36    14    13    2
    37    12    13    1
    38    12    30    1
    39    13    31    1
