@<TRIPOS>MOLECULE
?
 31 32 0 0 0
SMALL
GASTEIGER

@<TRIPOS>ATOM
      1 C          11.4794    4.3642   16.9300 C.ar    1  LIG1        0.0410
      2 C          10.6722    4.2366   15.8353 C.ar    1  LIG1       -0.0427
      3 H          10.5539    3.4054   15.4341 H       1  LIG1        0.0632
      4 C          10.0362    5.3470   15.3326 C.ar    1  LIG1       -0.0495
      5 H           9.4910    5.2675   14.5830 H       1  LIG1        0.0625
      6 C          10.2042    6.5891   15.9368 C.ar    1  LIG1        0.0229
      7 C          11.0029    6.6874   17.0588 C.ar    1  LIG1       -0.0495
      8 H          11.1043    7.5092   17.4827 H       1  LIG1        0.0625
      9 C          11.6569    5.5697   17.5588 C.ar    1  LIG1       -0.0427
     10 H          12.2042    5.6366   18.3065 H       1  LIG1        0.0632
     11 C           9.5502    7.7905   15.3593 C.2     1  LIG1        0.1995
     12 C           9.5142    9.0535   16.1908 C.2     1  LIG1        0.0586
     13 C          11.8397    9.5041   14.7262 C.3     1  LIG1       -0.0133
     14 H          12.2348    8.7377   15.1504 H       1  LIG1        0.0344
     15 H          12.5296   10.1262   14.4848 H       1  LIG1        0.0344
     16 H          11.3674    9.2260   13.9365 H       1  LIG1        0.0344
     17 C           8.5411    9.1298   17.1059 C.2     1  LIG1        0.0033
     18 H           7.9833    8.3948   17.2181 H       1  LIG1        0.0668
     19 C           8.3087   10.3071   17.9415 C.2     1  LIG1        0.1937
     20 C           7.3673   10.1817   19.0555 C.ar    1  LIG1        0.0588
     21 C           6.0181   10.7055   21.0376 C.ar    1  LIG1       -0.0236
     22 H           5.5902   11.0714   21.7763 H       1  LIG1        0.0693
     23 C           5.8079    9.4372   20.5965 C.ar    1  LIG1       -0.0540
     24 H           5.2204    8.8371   20.9961 H       1  LIG1        0.0623
     25 C           6.5855    9.1371   19.4587 C.ar    1  LIG1       -0.0438
     26 H           6.5675    8.3143   19.0266 H       1  LIG1        0.0630
     27 CL         12.2826    2.9610   17.5645 Cl      1  LIG1       -0.0835
     28 O           9.0367    7.7873   14.2660 O.2     1  LIG1       -0.2861
     29 O           8.9120   11.3639   17.7396 O.2     1  LIG1       -0.2867
     30 S           7.1472   11.5470   20.0899 S.2     1  LIG1       -0.0934
     31 S          10.6838   10.2996   15.8735 S.3     1  LIG1       -0.1247
@<TRIPOS>BOND
     1    16    13    1
     2    28    11    2
     3    15    13    1
     4     5     4    1
     5    13    14    1
     6    13    31    1
     7     4     2   ar
     8     4     6   ar
     9    11     6    1
    10    11    12    1
    11     3     2    1
    12     2     1   ar
    13    31    12    1
    14     6     7   ar
    15    12    17    2
    16     1     9   ar
    17     1    27    1
    18     7     8    1
    19     7     9   ar
    20    17    18    1
    21    17    19    1
    22     9    10    1
    23    29    19    2
    24    19    20    1
    25    26    25    1
    26    20    25   ar
    27    20    30   ar
    28    25    23   ar
    29    30    21   ar
    30    23    24    1
    31    23    21   ar
    32    21    22    1
