@<TRIPOS>MOLECULE
?
 26 28 0 0 0
SMALL
GASTEIGER

@<TRIPOS>ATOM
      1 C           1.2907    2.8535    1.9445 C.3     1  LIG1        0.0186
      2 H           2.0450    2.4351    1.4605 H       1  LIG1        0.0466
      3 H           1.3070    3.8301    1.7847 H       1  LIG1        0.0466
      4 C          -0.0571    2.2431    1.5053 C.3     1  LIG1       -0.0350
      5 H          -0.5706    2.8891    0.9584 H       1  LIG1        0.0281
      6 H           0.0896    1.4221    0.9728 H       1  LIG1        0.0281
      7 C          -0.8108    1.9160    2.8086 C.3     1  LIG1       -0.0263
      8 H          -1.3271    2.6969    3.1315 H       1  LIG1        0.0288
      9 H          -1.4240    1.1486    2.6869 H       1  LIG1        0.0288
     10 C           0.3276    1.5695    3.7664 C.3     1  LIG1        0.0799
     11 N           1.3534    2.5499    3.3898 N.am    1  LIG1       -0.2580
     12 C           1.4929    3.5132    4.3308 C.2     1  LIG1        0.4038
     13 O           0.8629    3.1355    5.4759 O.3     1  LIG1       -0.4422
     14 C           0.1719    1.8680    5.2750 C.3     1  LIG1        0.1516
     15 H          -0.7912    1.9327    5.5360 H       1  LIG1        0.0782
     16 C           0.8842    0.7250    6.0269 C.3     1  LIG1        0.0942
     17 H           1.4604    1.0778    6.7637 H       1  LIG1        0.0631
     18 C           1.7174    0.0178    4.9608 C.3     1  LIG1       -0.0212
     19 H           1.8658   -0.9316    5.1973 H       1  LIG1        0.0292
     20 H           2.5949    0.4611    4.8430 H       1  LIG1        0.0292
     21 C           0.8680    0.1413    3.6970 C.3     1  LIG1       -0.0253
     22 H           0.1294   -0.5189    3.6989 H       1  LIG1        0.0288
     23 H           1.4173    0.0083    2.8843 H       1  LIG1        0.0288
     24 O           2.0870    4.5646    4.2532 O.2     1  LIG1       -0.2262
     25 O          -0.0795   -0.2024    6.5214 O.3     1  LIG1       -0.3881
     26 H          -0.4368    0.1085    7.2148 H       1  LIG1        0.2099
@<TRIPOS>BOND
     1     5     4    1
     2     6     4    1
     3     2     1    1
     4     4     1    1
     5     4     7    1
     6     3     1    1
     7     1    11    1
     8     9     7    1
     9     7     8    1
    10     7    10    1
    11    23    21    1
    12    11    10    1
    13    11    12   am
    14    21    22    1
    15    21    10    1
    16    21    18    1
    17    10    14    1
    18    24    12    2
    19    12    13    1
    20    20    18    1
    21    18    19    1
    22    18    16    1
    23    14    13    1
    24    14    15    1
    25    14    16    1
    26    16    25    1
    27    16    17    1
    28    25    26    1
