@<TRIPOS>MOLECULE
?
 24 24 0 0 0
SMALL
GASTEIGER

@<TRIPOS>ATOM
      1 C           0.1801    3.4055    4.6547 C.2     1  LIG1        0.2335
      2 O          -0.4861    4.4180    4.7905 O.2     1  LIG1       -0.2832
      3 C          -0.1656    2.1562    5.3827 C.ar    1  LIG1        0.0333
      4 C          -1.2881    2.1238    6.1961 C.ar    1  LIG1       -0.0500
      5 H          -1.8234    2.9033    6.2918 H       1  LIG1        0.0625
      6 C          -1.6363    0.9676    6.8691 C.ar    1  LIG1       -0.0574
      7 H          -2.4107    0.9707    7.4196 H       1  LIG1        0.0621
      8 C          -0.8884   -0.2005    6.7652 C.ar    1  LIG1       -0.0414
      9 C           0.2313   -0.1586    5.9405 C.ar    1  LIG1       -0.0496
     10 H           0.7603   -0.9418    5.8437 H       1  LIG1        0.0627
     11 C           0.6027    0.9919    5.2519 C.ar    1  LIG1       -0.0060
     12 C          -1.3029   -1.5022    7.4624 C.3     1  LIG1       -0.0127
     13 C          -2.2859   -1.2445    8.6038 C.3     1  LIG1       -0.0560
     14 H          -1.8845   -0.6224    9.2461 H       1  LIG1        0.0238
     15 H          -2.4933   -2.0900    9.0541 H       1  LIG1        0.0238
     16 H          -3.1100   -0.8557    8.2436 H       1  LIG1        0.0238
     17 C          -1.9708   -2.3997    6.4136 C.3     1  LIG1       -0.0560
     18 H          -2.7459   -1.9356    6.0331 H       1  LIG1        0.0238
     19 H          -2.2644   -3.2336    6.8363 H       1  LIG1        0.0238
     20 H          -1.3289   -2.6023    5.7013 H       1  LIG1        0.0238
     21 C          -0.0900   -2.2250    8.0414 C.3     1  LIG1       -0.0560
     22 H           0.5246   -2.4624    7.3168 H       1  LIG1        0.0238
     23 H          -0.3841   -3.0388    8.5015 H       1  LIG1        0.0238
     24 H           0.3670   -1.6364    8.6782 H       1  LIG1        0.0238
@<TRIPOS>BOND
     1     1     2    2
     2     1     3    1
     3    11     3   ar
     4    11     9   ar
     5     3     4   ar
     6    20    17    1
     7    10     9    1
     8     9     8   ar
     9    18    17    1
    10     4     5    1
    11     4     6   ar
    12    17    19    1
    13    17    12    1
    14     8     6   ar
    15     8    12    1
    16     6     7    1
    17    22    21    1
    18    12    21    1
    19    12    13    1
    20    21    23    1
    21    21    24    1
    22    16    13    1
    23    13    15    1
    24    13    14    1
