@<TRIPOS>MOLECULE
C20 H22 O3
 45 47 0 0 0
SMALL
GASTEIGER

@<TRIPOS>ATOM
      1 O           0.7940    4.3152    8.3928 O.2     1  LIG1       -0.2924
      2 O           2.3913    7.1301    2.9602 O.3     1  LIG1       -0.5033
      3 H           2.6683    7.3747    2.2055 H       1  LIG1        0.2923
      4 O           2.2871    5.9165    0.5751 O.3     1  LIG1       -0.4915
      5 C           1.6653    0.2019    6.3570 C.3     1  LIG1       -0.0154
      6 H           0.8276   -0.3222    6.2004 H       1  LIG1        0.0349
      7 C           1.7391    1.3611    5.3333 C.3     1  LIG1       -0.0424
      8 H           1.1986    1.1434    4.5333 H       1  LIG1        0.0274
      9 H           2.6767    1.5020    5.0472 H       1  LIG1        0.0274
     10 C           1.1919    2.6431    6.0115 C.3     1  LIG1       -0.0261
     11 H           1.9616    3.2599    6.1774 H       1  LIG1        0.0311
     12 C           0.6799    2.1500    7.3627 C.3     1  LIG1        0.0320
     13 H          -0.2594    1.8294    7.2388 H       1  LIG1        0.0390
     14 C           0.6941    3.1055    8.5227 C.2     1  LIG1        0.1600
     15 C           0.5708    2.4643    9.8348 C.2     1  LIG1       -0.0187
     16 H           0.4020    3.0065   10.5960 H       1  LIG1        0.0652
     17 C           0.6883    1.1438    9.9984 C.2     1  LIG1       -0.0555
     18 H           0.5229    0.7796   10.8606 H       1  LIG1        0.0621
     19 C           1.0559    0.2371    8.9220 C.2     1  LIG1       -0.0500
     20 C           1.5553    0.9364    7.6886 C.3     1  LIG1       -0.0001
     21 H           2.4668    1.2863    7.9026 H       1  LIG1        0.0361
     22 C           2.8370   -0.7050    6.2423 C.2     1  LIG1       -0.0874
     23 H           3.6705   -0.3625    6.5429 H       1  LIG1        0.0569
     24 C           2.8412   -1.9290    5.7686 C.2     1  LIG1       -0.1023
     25 H           2.0346   -2.3192    5.4540 H       1  LIG1        0.0532
     26 H           3.6512   -2.4245    5.7400 H       1  LIG1        0.0532
     27 C           0.1469    3.3981    5.1862 C.3     1  LIG1       -0.0240
     28 H          -0.5750    2.7701    4.9340 H       1  LIG1        0.0316
     29 H          -0.2543    4.1057    5.7507 H       1  LIG1        0.0316
     30 C           0.7000    4.0282    3.9375 C.ar    1  LIG1       -0.0434
     31 C           1.2960    5.2855    3.9822 C.ar    1  LIG1       -0.0133
     32 H           1.3438    5.7441    4.8131 H       1  LIG1        0.0658
     33 C           1.8189    5.8844    2.8556 C.ar    1  LIG1        0.1587
     34 C           1.7668    5.2156    1.6414 C.ar    1  LIG1        0.1613
     35 C           1.2011    3.9661    1.5710 C.ar    1  LIG1       -0.0161
     36 H           1.1701    3.5068    0.7402 H       1  LIG1        0.0655
     37 C           0.6723    3.3725    2.7120 C.ar    1  LIG1       -0.0549
     38 H           0.2871    2.5063    2.6536 H       1  LIG1        0.0621
     39 C           2.6121    5.1878   -0.5959 C.3     1  LIG1        0.0790
     40 H           2.9805    5.7974   -1.2694 H       1  LIG1        0.0660
     41 H           1.8038    4.7606   -0.9498 H       1  LIG1        0.0660
     42 H           3.2760    4.5007   -0.3793 H       1  LIG1        0.0660
     43 C           0.9653   -1.0735    9.0725 C.2     1  LIG1       -0.0952
     44 H           0.6555   -1.4370    9.8939 H       1  LIG1        0.0538
     45 H           1.2095   -1.6514    8.3599 H       1  LIG1        0.0538
@<TRIPOS>BOND
     1    40    39    1
     2    41    39    1
     3    39    42    1
     4    39     4    1
     5     4    34    1
     6    36    35    1
     7    35    34   ar
     8    35    37   ar
     9    34    33   ar
    10     3     2    1
    11    38    37    1
    12    37    30   ar
    13    33     2    1
    14    33    31   ar
    15    30    31   ar
    16    30    27    1
    17    31    32    1
    18     8     7    1
    19    28    27    1
    20     9     7    1
    21    27    29    1
    22    27    10    1
    23     7    10    1
    24     7     5    1
    25    25    24    1
    26    26    24    1
    27    24    22    2
    28    10    11    1
    29    10    12    1
    30     6     5    1
    31    22     5    1
    32    22    23    1
    33     5    20    1
    34    13    12    1
    35    12    20    1
    36    12    14    1
    37    20    21    1
    38    20    19    1
    39    45    43    1
    40     1    14    2
    41    14    15    1
    42    19    43    2
    43    19    17    1
    44    43    44    1
    45    15    17    2
    46    15    16    1
    47    17    18    1
