@<TRIPOS>MOLECULE
?
 44 44 0 0 0
SMALL
GASTEIGER

@<TRIPOS>ATOM
      1 F           1.0004   -5.0516   17.3988 F       1  LIG1       -0.1659
      2 F           2.9010   -5.0809   16.3969 F       1  LIG1       -0.1659
      3 F           2.6288   -3.9468   18.2031 F       1  LIG1       -0.1659
      4 O           2.2838    0.9742   13.1680 O.2     1  LIG1       -0.2522
      5 O           3.4928    0.9514    8.8570 O.2     1  LIG1       -0.2758
      6 O           4.1084    5.5073    7.2807 O.3     1  LIG1       -0.3982
      7 H           4.7462    5.3879    7.9743 H       1  LIG1        0.2090
      8 N           3.3222    3.2290    8.8172 N.am    1  LIG1       -0.2857
      9 N           0.2907    1.8555   12.4433 N.am    1  LIG1       -0.2692
     10 H          -0.5851    1.7909   12.5013 H       1  LIG1        0.1564
     11 N           0.3016    0.2039   14.0271 N.am    1  LIG1       -0.2692
     12 H          -0.5976    0.3585   14.0791 H       1  LIG1        0.1564
     13 C           2.2159   -2.8276   15.0125 C.ar    1  LIG1       -0.0484
     14 H           3.0776   -3.5132   14.6237 H       1  LIG1        0.0624
     15 C           0.6650   -2.2436   16.7661 C.ar    1  LIG1       -0.0484
     16 H           0.1696   -2.6211   17.6102 H       1  LIG1        0.0624
     17 C           0.2409   -1.1369   16.0324 C.ar    1  LIG1       -0.0399
     18 H          -0.5046   -0.4413   16.4385 H       1  LIG1        0.0636
     19 C           0.8181   -0.8692   14.7775 C.ar    1  LIG1        0.0348
     20 C           1.8026   -1.7151   14.2735 C.ar    1  LIG1       -0.0399
     21 H           2.1658   -1.5356   13.2723 H       1  LIG1        0.0636
     22 C           1.0450    1.0091   13.2039 C.2     1  LIG1        0.3081
     23 C           0.8269    2.8346   11.5649 C.ar    1  LIG1        0.0365
     24 C           0.3011    4.1205   11.6092 C.ar    1  LIG1       -0.0403
     25 H          -0.6577    4.3536   12.3695 H       1  LIG1        0.0636
     26 C           0.7914    5.0900   10.7265 C.ar    1  LIG1       -0.0583
     27 H           0.3746    6.1045   10.8330 H       1  LIG1        0.0619
     28 C           1.7872    4.7821    9.8297 C.ar    1  LIG1       -0.0404
     29 H           2.2107    5.4260    9.1513 H       1  LIG1        0.0636
     30 C           1.8303    2.4938   10.6491 C.ar    1  LIG1       -0.0192
     31 H           2.1816    1.6114   10.6253 H       1  LIG1        0.0655
     32 C           2.0372   -4.2910   17.0350 C.3     1  LIG1        0.4174
     33 C           3.8564    2.0515    8.4203 C.2     1  LIG1        0.2141
     34 C           4.9230    2.1489    7.3631 C.3     1  LIG1        0.0125
     35 H           5.8016    2.2210    7.7905 H       1  LIG1        0.0323
     36 H           4.7632    2.9419    6.8092 H       1  LIG1        0.0323
     37 H           4.8989    1.3475    6.7999 H       1  LIG1        0.0323
     38 C           2.3045    3.4670    9.7754 C.ar    1  LIG1        0.0351
     39 C           1.6340   -3.0867   16.2441 C.ar    1  LIG1        0.0549
     40 C           3.1587    5.6857    6.2473 C.3     1  LIG1        0.0330
     41 H           3.6025    6.0570    5.4564 H       1  LIG1        0.0521
     42 H           2.4593    6.3022    6.5482 H       1  LIG1        0.0521
     43 H           2.7564    4.8212    6.0210 H       1  LIG1        0.0521
     44 H           3.6052    3.9355    8.4283 H       1  LIG1        0.1548
@<TRIPOS>BOND
     1    41    40    1
     2    43    40    1
     3    40    42    1
     4    40     6    1
     5    37    34    1
     6    36    34    1
     7     6     7    1
     8    34    35    1
     9    34    33    1
    10    33     8   am
    11    33     5    2
    12    44     8    1
    13     8    38    1
    14    29    28    1
    15    38    28   ar
    16    38    30   ar
    17    28    26   ar
    18    31    30    1
    19    30    23   ar
    20    26    27    1
    21    26    24   ar
    22    23    24   ar
    23    23     9    1
    24    24    25    1
    25     9    10    1
    26     9    22   am
    27     4    22    2
    28    22    11   am
    29    21    20    1
    30    11    12    1
    31    11    19    1
    32    20    19   ar
    33    20    13   ar
    34    14    13    1
    35    19    17   ar
    36    13    39   ar
    37    17    18    1
    38    17    15   ar
    39    39    15   ar
    40    39    32    1
    41     2    32    1
    42    15    16    1
    43    32     1    1
    44    32     3    1
