@<TRIPOS>MOLECULE
?
 66 70 0 0 0
SMALL
GASTEIGER

@<TRIPOS>ATOM
      1 S           4.9682    4.0465    3.6321 S.O2    1  LIG1        0.0590
      2 O           7.5830    0.7361    1.6099 O.3     1  LIG1       -0.4576
      3 O           8.9094    1.3829    3.2347 O.2     1  LIG1       -0.2489
      4 O           6.2563    4.6266    3.8354 O.2     1  LIG1       -0.1530
      5 O           4.2176    4.3583    2.4552 O.2     1  LIG1       -0.1530
      6 N           5.8167   -0.4417    3.5215 N.3     1  LIG1       -0.2112
      7 N           5.1951    2.4308    3.5968 N.3     1  LIG1       -0.1805
      8 H           4.4049    2.0094    3.4667 H       1  LIG1        0.1488
      9 C           5.5693   -0.4504    2.2770 C.3     1  LIG1        0.1014
     10 C           4.8447   -1.5105    1.5054 C.3     1  LIG1       -0.0100
     11 H           4.5223   -2.2686    2.0355 H       1  LIG1        0.0326
     12 C           5.9573   -1.8514    0.4661 C.3     1  LIG1       -0.0213
     13 C           6.0606   -0.3894   -0.0515 C.3     1  LIG1        0.0123
     14 C           6.2081    0.4407    1.2496 C.3     1  LIG1        0.1307
     15 H           5.6993    1.2749    1.1709 H       1  LIG1        0.0759
     16 C           3.7802   -0.8246    0.6232 C.3     1  LIG1       -0.0472
     17 H           3.1805   -1.4786    0.2307 H       1  LIG1        0.0269
     18 H           3.2592   -0.1899    1.1398 H       1  LIG1        0.0269
     19 C           4.5955   -0.1136   -0.4532 C.3     1  LIG1       -0.0434
     20 H           4.4102    0.8384   -0.4586 H       1  LIG1        0.0272
     21 H           4.4023   -0.4767   -1.3314 H       1  LIG1        0.0272
     22 C           5.5136   -2.8963   -0.5881 C.3     1  LIG1       -0.0589
     23 H           6.2123   -3.0113   -1.2370 H       1  LIG1        0.0235
     24 H           4.7173   -2.5887   -1.0279 H       1  LIG1        0.0235
     25 H           5.3377   -3.7333   -0.1551 H       1  LIG1        0.0235
     26 C           7.2313   -2.4044    1.1034 C.3     1  LIG1       -0.0589
     27 H           7.5857   -1.7614    1.7212 H       1  LIG1        0.0235
     28 H           7.8805   -2.5817    0.4182 H       1  LIG1        0.0235
     29 H           7.0280   -3.2192    1.5701 H       1  LIG1        0.0235
     30 C           7.0806   -0.0624   -1.1239 C.3     1  LIG1       -0.0556
     31 H           6.9197   -0.6098   -1.8952 H       1  LIG1        0.0236
     32 H           7.9637   -0.2342   -0.7878 H       1  LIG1        0.0236
     33 H           7.0046    0.8634   -1.3665 H       1  LIG1        0.0236
     34 C           7.8327    0.9637    2.9139 C.2     1  LIG1        0.3282
     35 C           6.7807    0.5737    3.9449 C.3     1  LIG1        0.1436
     36 H           7.2835    0.1566    4.6753 H       1  LIG1        0.0612
     37 C           6.1065    1.8071    4.5778 C.3     1  LIG1        0.0809
     38 H           6.8176    2.4584    4.7563 H       1  LIG1        0.0548
     39 C           5.4782    1.4613    5.9274 C.ar    1  LIG1       -0.0266
     40 C           4.1583    1.1294    6.0708 C.ar    1  LIG1       -0.0570
     41 H           3.5990    1.1142    5.3282 H       1  LIG1        0.0621
     42 C           3.6556    0.8176    7.3246 C.ar    1  LIG1       -0.0612
     43 H           2.7596    0.5904    7.4217 H       1  LIG1        0.0618
     44 C           4.4805    0.8453    8.4280 C.ar    1  LIG1       -0.0588
     45 H           4.1300    0.6444    9.2644 H       1  LIG1        0.0620
     46 C           5.8107    1.1641    8.3150 C.ar    1  LIG1       -0.0501
     47 C           6.3146    1.4731    7.0516 C.ar    1  LIG1       -0.0540
     48 H           7.2142    1.6879    6.9537 H       1  LIG1        0.0623
     49 C           6.7508    1.1682    9.5220 C.3     1  LIG1       -0.0397
     50 H           6.6304    0.3575   10.0224 H       1  LIG1        0.0278
     51 H           6.5521    1.9221   10.0805 H       1  LIG1        0.0278
     52 H           7.6601    1.2250    9.2185 H       1  LIG1        0.0278
     53 C           3.9711    4.4021    5.0487 C.ar    1  LIG1        0.1053
     54 C           2.5964    4.3570    4.9431 C.ar    1  LIG1       -0.0351
     55 H           2.1904    4.2419    4.1142 H       1  LIG1        0.0637
     56 C           1.8374    4.4844    6.0796 C.ar    1  LIG1       -0.0570
     57 H           0.9109    4.4789    6.0067 H       1  LIG1        0.0621
     58 C           2.4165    4.6244    7.3368 C.ar    1  LIG1       -0.0503
     59 C           3.7978    4.6674    7.4169 C.ar    1  LIG1       -0.0570
     60 H           4.2086    4.7616    8.2459 H       1  LIG1        0.0621
     61 C           4.5711    4.5745    6.2806 C.ar    1  LIG1       -0.0351
     62 H           5.4978    4.6272    6.3426 H       1  LIG1        0.0637
     63 C           1.5715    4.7173    8.5832 C.3     1  LIG1       -0.0397
     64 H           0.9308    4.0022    8.5872 H       1  LIG1        0.0278
     65 H           2.1355    4.6466    9.3561 H       1  LIG1        0.0278
     66 H           1.1108    5.5584    8.5980 H       1  LIG1        0.0278
@<TRIPOS>BOND
     1    31    30    1
     2    33    30    1
     3    21    19    1
     4    23    22    1
     5    30    32    1
     6    30    13    1
     7    24    22    1
     8    22    25    1
     9    22    12    1
    10    20    19    1
    11    19    13    1
    12    19    16    1
    13    13    12    1
    14    13    14    1
    15    17    16    1
    16    28    26    1
    17    12    26    1
    18    12    10    1
    19    16    18    1
    20    16    10    1
    21    26    29    1
    22    26    27    1
    23    15    14    1
    24    14     2    1
    25    14     9    1
    26    10    11    1
    27    10     9    1
    28     2    34    1
    29     9     6    1
    30     5     1    2
    31    34     3    2
    32    34    35    1
    33     8     7    1
    34     6    35    1
    35     7     1    1
    36     7    37    1
    37     1     4    2
    38     1    53    1
    39    35    37    1
    40    35    36    1
    41    55    54    1
    42    37    38    1
    43    37    39    1
    44    54    53   ar
    45    54    56   ar
    46    53    61   ar
    47    41    40    1
    48    39    40   ar
    49    39    47   ar
    50    57    56    1
    51    40    42   ar
    52    56    58   ar
    53    61    62    1
    54    61    59   ar
    55    48    47    1
    56    47    46   ar
    57    42    43    1
    58    42    44   ar
    59    58    59   ar
    60    58    63    1
    61    59    60    1
    62    46    44   ar
    63    46    49    1
    64    44    45    1
    65    63    64    1
    66    63    66    1
    67    63    65    1
    68    52    49    1
    69    49    50    1
    70    49    51    1
