@<TRIPOS>MOLECULE
(5S*,6S*)-6,8-Diphenyl-2-oxa-7-azaspiro[4.4]non-7-en-1-one
 39 42 0 0 0
SMALL
GASTEIGER

@<TRIPOS>ATOM
      1 N           1.3381    3.9612    1.7362 N.3     1  LIG1       -0.2178
      2 C           0.8321    2.8549    2.1271 C.3     1  LIG1        0.0868
      3 C           1.3648    1.6326    1.4313 C.3     1  LIG1       -0.0092
      4 H           0.6376    1.0006    1.2013 H       1  LIG1        0.0299
      5 H           2.0392    1.1656    1.9856 H       1  LIG1        0.0299
      6 C           1.9962    2.2394    0.1768 C.3     1  LIG1        0.0937
      7 C           2.3292    3.6932    0.6896 C.3     1  LIG1        0.0672
      8 H           3.2326    3.6698    1.1183 H       1  LIG1        0.0537
      9 C           1.1183    2.1715   -1.0704 C.3     1  LIG1       -0.0009
     10 H           0.5090    1.3918   -1.0334 H       1  LIG1        0.0309
     11 H           0.5809    2.9965   -1.1709 H       1  LIG1        0.0309
     12 C           2.1180    2.0284   -2.2131 C.3     1  LIG1        0.0935
     13 H           1.7689    1.4131   -2.9064 H       1  LIG1        0.0698
     14 H           2.2981    2.9087   -2.6305 H       1  LIG1        0.0698
     15 O           3.3241    1.4911   -1.6165 O.3     1  LIG1       -0.4642
     16 C           3.2704    1.5470   -0.2738 C.2     1  LIG1        0.3154
     17 O           4.1514    1.1108    0.4086 O.2     1  LIG1       -0.2501
     18 C           2.3450    4.7580   -0.3752 C.ar    1  LIG1       -0.0278
     19 C           3.4593    4.9150   -1.1895 C.ar    1  LIG1       -0.0570
     20 H           4.2312    4.3830   -1.0371 H       1  LIG1        0.0621
     21 C           3.4553    5.8397   -2.2215 C.ar    1  LIG1       -0.0615
     22 H           4.2193    5.9318   -2.7791 H       1  LIG1        0.0618
     23 C           2.3433    6.6288   -2.4415 C.ar    1  LIG1       -0.0617
     24 H           2.3385    7.2544   -3.1555 H       1  LIG1        0.0618
     25 C           1.2405    6.5061   -1.6225 C.ar    1  LIG1       -0.0615
     26 H           0.4806    7.0602   -1.7604 H       1  LIG1        0.0618
     27 C           1.2444    5.5707   -0.5961 C.ar    1  LIG1       -0.0570
     28 H           0.4813    5.4874   -0.0369 H       1  LIG1        0.0621
     29 C          -0.1916    2.8155    3.1898 C.ar    1  LIG1       -0.0237
     30 C          -0.4483    3.9527    3.9519 C.ar    1  LIG1       -0.0567
     31 H           0.0794    4.7316    3.8281 H       1  LIG1        0.0621
     32 C          -1.4632    3.9535    4.8837 C.ar    1  LIG1       -0.0614
     33 H          -1.6331    4.7343    5.3976 H       1  LIG1        0.0618
     34 C          -2.2333    2.8249    5.0726 C.ar    1  LIG1       -0.0617
     35 H          -2.9451    2.8368    5.7012 H       1  LIG1        0.0618
     36 C          -1.9718    1.6824    4.3511 C.ar    1  LIG1       -0.0614
     37 H          -2.4922    0.8995    4.4952 H       1  LIG1        0.0618
     38 C          -0.9478    1.6712    3.4118 C.ar    1  LIG1       -0.0567
     39 H          -0.7644    0.8782    2.9202 H       1  LIG1        0.0621
@<TRIPOS>BOND
     1    24    23    1
     2    13    12    1
     3    22    21    1
     4    14    12    1
     5    23    21   ar
     6    23    25   ar
     7    21    19   ar
     8    12    15    1
     9    12     9    1
    10    26    25    1
    11    25    27   ar
    12    15    16    1
    13    19    20    1
    14    19    18   ar
    15    11     9    1
    16     9    10    1
    17     9     6    1
    18    27    18   ar
    19    27    28    1
    20    18     7    1
    21    16     6    1
    22    16    17    2
    23     6     7    1
    24     6     3    1
    25     7     8    1
    26     7     1    1
    27     4     3    1
    28     3     5    1
    29     3     2    1
    30     1     2    1
    31     2    29    1
    32    39    38    1
    33    29    38   ar
    34    29    30   ar
    35    38    36   ar
    36    31    30    1
    37    30    32   ar
    38    36    37    1
    39    36    34   ar
    40    32    34   ar
    41    32    33    1
    42    34    35    1
