@<TRIPOS>MOLECULE
?
 65 71 0 0 0
SMALL
GASTEIGER

@<TRIPOS>ATOM
      1 O           3.0179   12.7893    0.9696 O.2     1  LIG1       -0.4802
      2 O          -0.0487   15.0879    2.7668 O.2     1  LIG1       -0.2926
      3 C           3.8581    5.9716    4.2888 C.ar    1  LIG1       -0.0538
      4 H           3.3290    6.3139    3.6041 H       1  LIG1        0.0624
      5 C           4.0571    4.6451    4.3599 C.ar    1  LIG1       -0.0612
      6 H           3.6588    4.0895    3.7301 H       1  LIG1        0.0618
      7 C           4.8510    4.0852    5.3661 C.ar    1  LIG1       -0.0612
      8 H           4.9879    3.1660    5.3928 H       1  LIG1        0.0618
      9 C           5.4150    4.8754    6.2894 C.ar    1  LIG1       -0.0540
     10 H           5.9305    4.4936    6.9622 H       1  LIG1        0.0624
     11 C           6.1882    9.3104    8.2219 C.ar    1  LIG1       -0.0540
     12 H           6.7071    8.9222    8.8902 H       1  LIG1        0.0624
     13 C           5.9814   10.6337    8.2411 C.ar    1  LIG1       -0.0612
     14 H           6.3408   11.1531    8.9243 H       1  LIG1        0.0618
     15 C           5.2210   11.2330    7.2245 C.ar    1  LIG1       -0.0612
     16 H           5.0885   12.1533    7.2349 H       1  LIG1        0.0618
     17 C           4.6809   10.4983    6.2335 C.ar    1  LIG1       -0.0538
     18 H           4.1917   10.9270    5.5692 H       1  LIG1        0.0624
     19 C           4.2375    8.2686    5.1953 C.ar    1  LIG1       -0.0311
     20 C           5.8197    7.1094    7.2063 C.ar    1  LIG1       -0.0463
     21 H           6.3525    6.7287    7.8662 H       1  LIG1        0.0630
     22 C           4.8356    9.0833    6.1734 C.ar    1  LIG1       -0.0141
     23 C           5.6358    8.4829    7.2069 C.ar    1  LIG1       -0.0170
     24 C           4.4392    6.8716    5.2335 C.ar    1  LIG1       -0.0141
     25 C           5.2382    6.2841    6.2593 C.ar    1  LIG1       -0.0170
     26 C           3.3615    8.8487    4.1087 C.3     1  LIG1       -0.0157
     27 H           3.0111    9.7007    4.4133 H       1  LIG1        0.0323
     28 H           2.6081    8.2547    3.9657 H       1  LIG1        0.0323
     29 C           1.8007   10.4685    0.0741 C.ar    1  LIG1       -0.0542
     30 H           1.4850   11.2928   -0.2178 H       1  LIG1        0.0622
     31 C           1.4115    9.3221   -0.5809 C.ar    1  LIG1       -0.0613
     32 H           0.8385    9.3797   -1.3100 H       1  LIG1        0.0618
     33 C           1.8610    8.0990   -0.1645 C.ar    1  LIG1       -0.0615
     34 H           1.5946    7.3259   -0.6091 H       1  LIG1        0.0618
     35 C           2.7128    8.0190    0.9184 C.ar    1  LIG1       -0.0576
     36 H           3.0167    7.1873    1.2019 H       1  LIG1        0.0621
     37 C           6.3261   10.1464    3.1935 C.ar    1  LIG1       -0.0576
     38 H           6.6413    9.3200    3.4811 H       1  LIG1        0.0621
     39 C           7.1760   11.2266    3.1906 C.ar    1  LIG1       -0.0615
     40 H           8.0575   11.1296    3.4722 H       1  LIG1        0.0618
     41 C           6.7184   12.4402    2.7727 C.ar    1  LIG1       -0.0613
     42 H           7.2926   13.1706    2.7609 H       1  LIG1        0.0618
     43 C           5.4076   12.5905    2.3674 C.ar    1  LIG1       -0.0542
     44 H           5.1015   13.4265    2.0984 H       1  LIG1        0.0622
     45 C           3.1020   11.6521    1.8967 C.3     1  LIG1        0.1647
     46 C           4.0930    9.0651    2.7508 C.3     1  LIG1        0.0140
     47 H           4.6519    8.2760    2.5934 H       1  LIG1        0.0401
     48 C           4.5432   11.5060    2.3575 C.ar    1  LIG1        0.0042
     49 C           5.0044   10.2626    2.7741 C.ar    1  LIG1       -0.0324
     50 C           2.6591   10.4098    1.1647 C.ar    1  LIG1        0.0042
     51 C           3.1230    9.1675    1.5934 C.ar    1  LIG1       -0.0324
     52 C           2.1356   12.0392    3.0553 C.3     1  LIG1        0.0273
     53 H           1.4702   11.3482    3.2040 H       1  LIG1        0.0361
     54 H           2.6220   12.1960    3.8797 H       1  LIG1        0.0361
     55 C           1.4981   13.3114    2.5447 C.2     1  LIG1        0.0363
     56 C           2.0602   13.6526    1.3960 C.2     1  LIG1        0.1030
     57 C           1.8451   14.8256    0.4846 C.3     1  LIG1       -0.0065
     58 H           1.4823   14.5196   -0.3497 H       1  LIG1        0.0308
     59 H           2.6827   15.2660    0.3275 H       1  LIG1        0.0308
     60 H           1.2332   15.4409    0.8951 H       1  LIG1        0.0308
     61 C           0.4843   14.0909    3.2573 C.2     1  LIG1        0.1595
     62 C           0.1177   13.6132    4.6104 C.3     1  LIG1       -0.0016
     63 H          -0.5840   14.1634    4.9645 H       1  LIG1        0.0309
     64 H           0.8848   13.6643    5.1868 H       1  LIG1        0.0309
     65 H          -0.1830   12.7035    4.5585 H       1  LIG1        0.0309
@<TRIPOS>BOND
     1    32    31    1
     2    34    33    1
     3    31    33   ar
     4    31    29   ar
     5    58    57    1
     6    30    29    1
     7    33    35   ar
     8    29    50   ar
     9    59    57    1
    10    57    60    1
    11    57    56    1
    12    35    36    1
    13    35    51   ar
    14     1    56    1
    15     1    45    1
    16    50    51   ar
    17    50    45    1
    18    56    55    2
    19    51    46    1
    20    45    48    1
    21    45    52    1
    22    44    43    1
    23    48    43   ar
    24    48    49   ar
    25    43    41   ar
    26    55    52    1
    27    55    61    1
    28    47    46    1
    29    46    49    1
    30    46    26    1
    31    42    41    1
    32     2    61    2
    33    41    39   ar
    34    49    37   ar
    35    52    53    1
    36    52    54    1
    37    39    37   ar
    38    39    40    1
    39    37    38    1
    40    61    62    1
    41     4     3    1
    42     6     5    1
    43    28    26    1
    44    26    27    1
    45    26    19    1
    46     3     5   ar
    47     3    24   ar
    48     5     7   ar
    49    65    62    1
    50    62    63    1
    51    62    64    1
    52    19    24   ar
    53    19    22   ar
    54    24    25   ar
    55     7     8    1
    56     7     9   ar
    57    18    17    1
    58    22    17   ar
    59    22    23   ar
    60    17    15   ar
    61    25     9   ar
    62    25    20   ar
    63     9    10    1
    64    20    23   ar
    65    20    21    1
    66    23    11   ar
    67    15    16    1
    68    15    13   ar
    69    11    13   ar
    70    11    12    1
    71    13    14    1
