@<TRIPOS>MOLECULE
?
 62 66 0 0 0
SMALL
GASTEIGER

@<TRIPOS>ATOM
      1 O           4.7734    3.6834    6.6656 O.2     1  LIG1       -0.2496
      2 O           5.7868    5.6560    6.5505 O.3     1  LIG1       -0.4641
      3 O           4.1761    7.4773    4.2834 O.2     1  LIG1       -0.2496
      4 O           2.8826    6.6082    5.8762 O.3     1  LIG1       -0.4641
      5 C          -1.4901    6.5071    3.7821 C.ar    1  LIG1       -0.0540
      6 H          -0.9930    6.5408    4.5682 H       1  LIG1        0.0624
      7 C          -2.6587    7.2234    3.6894 C.ar    1  LIG1       -0.0612
      8 H          -2.9523    7.7304    4.4121 H       1  LIG1        0.0618
      9 C          -3.3927    7.1897    2.5285 C.ar    1  LIG1       -0.0617
     10 H          -4.1843    7.6740    2.4655 H       1  LIG1        0.0618
     11 C          -2.9647    6.4499    1.4729 C.ar    1  LIG1       -0.0612
     12 H          -3.4570    6.4389    0.6846 H       1  LIG1        0.0618
     13 C          -1.7955    5.7124    1.5690 C.ar    1  LIG1       -0.0540
     14 H          -1.5161    5.1944    0.8485 H       1  LIG1        0.0624
     15 C          -1.0424    5.7390    2.7276 C.ar    1  LIG1       -0.0176
     16 C           0.2336    4.9890    2.8057 C.2     1  LIG1       -0.0132
     17 C           0.4027    3.5807    2.4159 C.ar    1  LIG1       -0.0133
     18 C          -0.5095    2.6348    1.9855 C.ar    1  LIG1       -0.0537
     19 H          -1.4081    2.8550    1.8979 H       1  LIG1        0.0624
     20 C          -0.0739    1.3644    1.6896 C.ar    1  LIG1       -0.0612
     21 H          -0.6788    0.7281    1.3810 H       1  LIG1        0.0618
     22 C           1.2455    1.0298    1.8454 C.ar    1  LIG1       -0.0614
     23 H           1.5286    0.1685    1.6385 H       1  LIG1        0.0618
     24 C           2.1709    1.9632    2.3096 C.ar    1  LIG1       -0.0568
     25 H           3.0623    1.7265    2.4323 H       1  LIG1        0.0621
     26 C           1.7443    3.2343    2.5821 C.ar    1  LIG1       -0.0253
     27 C           2.5320    4.4483    3.0768 C.3     1  LIG1        0.0418
     28 C           1.4210    5.4710    3.1934 C.2     1  LIG1       -0.0609
     29 H           1.5494    6.3386    3.5012 H       1  LIG1        0.0590
     30 C           3.5403    4.9154    2.0165 C.ar    1  LIG1       -0.0298
     31 C           3.0982    5.1042    0.7153 C.ar    1  LIG1       -0.0572
     32 H           2.2085    4.9334    0.5091 H       1  LIG1        0.0621
     33 C           3.9439    5.5376   -0.2733 C.ar    1  LIG1       -0.0614
     34 H           3.6263    5.6607   -1.1391 H       1  LIG1        0.0618
     35 C           5.2637    5.7900    0.0201 C.ar    1  LIG1       -0.0615
     36 H           5.8484    6.0721   -0.6476 H       1  LIG1        0.0618
     37 C           5.7104    5.6223    1.3045 C.ar    1  LIG1       -0.0582
     38 H           6.6010    5.8033    1.5000 H       1  LIG1        0.0620
     39 C           4.8696    5.1881    2.3260 C.ar    1  LIG1       -0.0415
     40 C           5.4149    5.0470    3.7150 C.3     1  LIG1       -0.0012
     41 H           6.0612    5.7524    3.8738 H       1  LIG1        0.0329
     42 H           5.8778    4.1983    3.7879 H       1  LIG1        0.0329
     43 C           4.3337    5.1160    4.7876 C.3     1  LIG1        0.1690
     44 C           3.2197    4.1324    4.4147 C.3     1  LIG1       -0.0093
     45 H           2.5516    4.1364    5.1182 H       1  LIG1        0.0296
     46 H           3.5941    3.2390    4.3692 H       1  LIG1        0.0296
     47 C           4.9546    4.7179    6.1101 C.2     1  LIG1        0.3246
     48 C           6.5861    5.3770    7.7388 C.3     1  LIG1        0.0897
     49 H           6.8486    4.4428    7.7378 H       1  LIG1        0.0694
     50 H           7.3931    5.9146    7.7183 H       1  LIG1        0.0694
     51 C           5.8622    5.6622    8.9214 C.3     1  LIG1       -0.0306
     52 H           6.4147    5.4812    9.6864 H       1  LIG1        0.0262
     53 H           5.0760    5.1113    8.9569 H       1  LIG1        0.0262
     54 H           5.6043    6.5870    8.9237 H       1  LIG1        0.0262
     55 C           3.8146    6.5470    4.9319 C.2     1  LIG1        0.3246
     56 C           2.3083    7.9381    6.1444 C.3     1  LIG1        0.0897
     57 H           2.2468    8.4428    5.3191 H       1  LIG1        0.0694
     58 H           1.4149    7.8433    6.5109 H       1  LIG1        0.0694
     59 C           3.1433    8.6325    7.0762 C.3     1  LIG1       -0.0306
     60 H           2.7777    9.5047    7.2443 H       1  LIG1        0.0262
     61 H           4.0264    8.7202    6.7118 H       1  LIG1        0.0262
     62 H           3.1837    8.1387    7.8977 H       1  LIG1        0.0262
@<TRIPOS>BOND
     1    34    33    1
     2    36    35    1
     3    33    35   ar
     4    33    31   ar
     5    35    37   ar
     6    32    31    1
     7    12    11    1
     8    31    30   ar
     9    14    13    1
    10    37    38    1
    11    37    39   ar
    12    21    20    1
    13    11    13   ar
    14    11     9   ar
    15    13    15   ar
    16    23    22    1
    17    20    22   ar
    18    20    18   ar
    19    22    24   ar
    20    19    18    1
    21    18    17   ar
    22    30    39   ar
    23    30    27    1
    24    24    25    1
    25    24    26   ar
    26    39    40    1
    27    17    26   ar
    28    17    16    1
    29    10     9    1
    30     9     7   ar
    31    26    27    1
    32    15    16    1
    33    15     5   ar
    34    16    28    2
    35    27    28    1
    36    27    44    1
    37    28    29    1
    38     7     5   ar
    39     7     8    1
    40    40    42    1
    41    40    41    1
    42    40    43    1
    43     5     6    1
    44     3    55    2
    45    46    44    1
    46    44    43    1
    47    44    45    1
    48    43    55    1
    49    43    47    1
    50    55     4    1
    51    57    56    1
    52     4    56    1
    53    47     2    1
    54    47     1    2
    55    56    58    1
    56    56    59    1
    57     2    48    1
    58    61    59    1
    59    59    60    1
    60    59    62    1
    61    50    48    1
    62    49    48    1
    63    48    51    1
    64    51    54    1
    65    51    53    1
    66    51    52    1
