@<TRIPOS>MOLECULE
C14 H20 O4 S4
 21 20 0 0 0
SMALL
GASTEIGER

@<TRIPOS>ATOM
      1 C           2.2316    2.9326    3.8330 C.3     1  LIG1        0.0010
      2 C           1.3008    3.8366    4.6174 C.3     1  LIG1       -0.0428
      3 S           1.3610    1.7503    2.7857 S.3     1  LIG1       -0.0881
      4 S          -0.1594    4.3072   -3.6061 S.3     1  LIG1       -0.0116
      5 O           2.1440    3.5237    1.0052 O.2     1  LIG1       -0.2852
      6 O          -2.4087    3.0028   -3.3383 O.2     1  LIG1       -0.2844
      7 C           0.7221    1.8180    0.1171 C.3     1  LIG1        0.0166
      8 C          -0.6418    2.1224   -1.9833 C.3     1  LIG1        0.0174
      9 C           0.0936    2.8068   -0.8397 C.3     1  LIG1       -0.0380
     10 C           1.4959    2.5270    1.1984 C.2     1  LIG1        0.1894
     11 C          -1.2629    3.0765   -2.9731 C.2     1  LIG1        0.2000
     12 H           0.0464    1.2849    0.5006 H       1  LIG1        0.0350
     13 H           0.7343    3.3262    5.1795 H       1  LIG1        0.0273
     14 H          -1.3546    1.5674   -1.6550 H       1  LIG1        0.0351
     15 H          -0.0434    1.6039   -2.4723 H       1  LIG1        0.0351
     16 H          -0.5247    3.3445   -0.3371 H       1  LIG1        0.0274
     17 H           2.7864    3.4356    3.2691 H       1  LIG1        0.0381
     18 H           0.7395    3.3627   -1.1544 H       1  LIG1        0.0274
     19 H           1.3315    1.2394   -0.3576 H       1  LIG1        0.0350
     20 H           2.7449    2.4423    4.4133 H       1  LIG1        0.0381
     21 H           1.8383    4.4471    5.1284 H       1  LIG1        0.0273
@<TRIPOS>BOND
     1     4    11    1
     2     6    11    2
     3    11     8    1
     4    15     8    1
     5     8    14    1
     6     8     9    1
     7    18     9    1
     8     9    16    1
     9     9     7    1
    10    19     7    1
    11     7    12    1
    12     7    10    1
    13     5    10    2
    14    10     3    1
    15     3     1    1
    16    17     1    1
    17     1    20    1
    18     1     2    1
    19     2    21    1
    20     2    13    1
