@<TRIPOS>MOLECULE
?
 72 75 0 0 0
SMALL
GASTEIGER

@<TRIPOS>ATOM
      1 I           3.4729    4.1309   18.8665 I       1  LIG1       -0.0438
      2 I           7.0236    6.5674   18.8693 I       2  LIG2       -0.0438
      3 I           6.0134    8.7250   25.4145 I       3  LIG3       -0.0438
      4 CL          4.6957    2.9848   30.0682 Cl      1  LIG1       -0.0611
      5 CL          2.8373   -0.3375   26.6295 Cl      1  LIG1       -0.0410
      6 CL          4.0364   11.2403    9.0216 Cl      2  LIG2       -0.0611
      7 CL          3.7516   13.0025   13.8177 Cl      2  LIG2       -0.0410
      8 CL          5.3881   15.3504   16.2611 Cl      3  LIG3       -0.0611
      9 CL          6.0121   16.7804   21.1688 Cl      3  LIG3       -0.0410
     10 O           5.1478    5.8796   26.9378 O.2     1  LIG1       -0.2955
     11 O           5.6164    7.5443   10.5692 O.2     2  LIG2       -0.2955
     12 O           4.9524   11.3249   17.5623 O.2     3  LIG3       -0.2955
     13 N           3.7768    1.4732   28.1986 N.ar    1  LIG1       -0.2050
     14 N           3.6392    2.0087   25.8707 N.ar    1  LIG1       -0.2015
     15 N           4.2826    4.1074   25.1110 N.pl3   1  LIG1       -0.2987
     16 N           4.0185   11.9604   11.4787 N.ar    2  LIG2       -0.2050
     17 N           4.7220   10.6502   13.3616 N.ar    2  LIG2       -0.2015
     18 N           5.5755    8.5197   13.0765 N.pl3   2  LIG2       -0.2987
     19 N           5.6882   15.8918   18.7836 N.ar    3  LIG3       -0.2050
     20 N           5.7702   14.2767   20.5674 N.ar    3  LIG3       -0.2015
     21 N           5.5709   11.9961   20.0770 N.pl3   3  LIG3       -0.2987
     22 C           4.4899    3.6426   27.4548 C.ar    1  LIG1        0.0910
     23 C           4.2932    2.6749   28.4164 C.ar    1  LIG1        0.1459
     24 C           3.4942    1.2409   26.9239 C.ar    1  LIG1        0.2258
     25 C           4.1335    3.2325   26.1184 C.ar    1  LIG1        0.1394
     26 C           4.0404    4.0133   23.7130 C.ar    1  LIG1        0.0324
     27 C           3.5735    2.8791   23.0632 C.ar    1  LIG1       -0.0395
     28 C           4.8958    9.7418   11.1259 C.ar    2  LIG2        0.0910
     29 C           4.3631   10.9470   10.7086 C.ar    2  LIG2        0.1459
     30 C           4.2269   11.7087   12.7697 C.ar    2  LIG2        0.2258
     31 C           5.0631    9.6408   12.5461 C.ar    2  LIG2        0.1394
     32 C           5.8625    8.1579   14.4096 C.ar    2  LIG2        0.0324
     33 C           5.7311    8.9984   15.5125 C.ar    2  LIG2       -0.0395
     34 C           5.3824   13.5569   18.2669 C.ar    3  LIG3        0.0910
     35 C           5.4850   14.8767   17.9312 C.ar    3  LIG3        0.1459
     36 C           5.8001   15.4871   20.0372 C.ar    3  LIG3        0.2258
     37 C           5.5811   13.2762   19.6803 C.ar    3  LIG3        0.1394
     38 C           5.7139   11.3740   21.3373 C.ar    3  LIG3        0.0324
     39 C           5.8743   12.0288   22.5504 C.ar    3  LIG3       -0.0395
     40 C           3.4089    2.9071   21.6745 C.ar    1  LIG1       -0.0469
     41 C           3.7006    4.0535   20.9552 C.ar    1  LIG1        0.0135
     42 C           4.1484    5.1920   21.6196 C.ar    1  LIG1       -0.0469
     43 C           4.3087    5.1637   22.9881 C.ar    1  LIG1       -0.0395
     44 C           5.0202    4.9823   27.7496 C.2     1  LIG1        0.1564
     45 C           6.0530    8.5383   16.7664 C.ar    2  LIG2       -0.0469
     46 C           6.5220    7.2426   16.9516 C.ar    2  LIG2        0.0135
     47 C           6.6609    6.4054   15.8560 C.ar    2  LIG2       -0.0469
     48 C           6.3317    6.8718   14.6037 C.ar    2  LIG2       -0.0395
     49 C           5.1933    8.6351   10.2218 C.2     2  LIG2        0.1564
     50 C           5.9779   11.2780   23.7126 C.ar    3  LIG3       -0.0469
     51 C           5.9231    9.8949   23.6722 C.ar    3  LIG3        0.0135
     52 C           5.7877    9.2453   22.4585 C.ar    3  LIG3       -0.0469
     53 C           5.6840    9.9750   21.3078 C.ar    3  LIG3       -0.0395
     54 C           5.0349   12.5189   17.3129 C.2     3  LIG3        0.1564
     55 H           4.5905    4.7567   25.3483 H       1  LIG1        0.1536
     56 H           3.3716    2.1091   23.5463 H       1  LIG1        0.0636
     57 H           5.7397    7.9875   12.5775 H       2  LIG2        0.1536
     58 H           5.4261    9.8708   15.4001 H       2  LIG2        0.0636
     59 H           5.4462   11.4886   19.3885 H       3  LIG3        0.1536
     60 H           5.9122   12.9576   22.5844 H       3  LIG3        0.0636
     61 H           3.1011    2.1488   21.2318 H       1  LIG1        0.0628
     62 H           4.3394    5.9676   21.1428 H       1  LIG1        0.0628
     63 H           4.6015    5.9279   23.4312 H       1  LIG1        0.0636
     64 H           5.2792    5.1562   28.6246 H       1  LIG1        0.1084
     65 H           5.9554    9.1016   17.5017 H       2  LIG2        0.0628
     66 H           6.9725    5.5359   15.9667 H       2  LIG2        0.0628
     67 H           6.4277    6.3076   13.8694 H       2  LIG2        0.0636
     68 H           5.0477    8.7716    9.3143 H       2  LIG2        0.1084
     69 H           6.0857   11.7095   24.5298 H       3  LIG3        0.0628
     70 H           5.7668    8.3150   22.4259 H       3  LIG3        0.0628
     71 H           5.5913    9.5358   20.4936 H       3  LIG3        0.0636
     72 H           4.8606   12.7839   16.4379 H       3  LIG3        0.1084
@<TRIPOS>BOND
     1     6    29    1
     2    68    49    1
     3    49    11    2
     4    49    28    1
     5    29    28   ar
     6    29    16   ar
     7    28    31   ar
     8    16    30   ar
     9    31    18    1
    10    31    17   ar
    11    57    18    1
    12    30    17   ar
    13    30     7    1
    14    18    32    1
    15    67    48    1
    16    32    48   ar
    17    32    33   ar
    18    48    47   ar
    19    58    33    1
    20    33    45   ar
    21    47    66    1
    22    47    46   ar
    23     8    35    1
    24    72    54    1
    25    45    46   ar
    26    45    65    1
    27    46     2    1
    28    54    12    2
    29    54    34    1
    30    35    34   ar
    31    35    19   ar
    32    34    37   ar
    33    19    36   ar
    34     1    41    1
    35    59    21    1
    36    37    21    1
    37    37    20   ar
    38    36    20   ar
    39    36     9    1
    40    21    38    1
    41    71    53    1
    42    41    42   ar
    43    41    40   ar
    44    62    42    1
    45    61    40    1
    46    53    38   ar
    47    53    52   ar
    48    38    39   ar
    49    42    43   ar
    50    40    27   ar
    51    70    52    1
    52    52    51   ar
    53    39    60    1
    54    39    50   ar
    55    43    63    1
    56    43    26   ar
    57    27    56    1
    58    27    26   ar
    59    51    50   ar
    60    51     3    1
    61    50    69    1
    62    26    15    1
    63    15    55    1
    64    15    25    1
    65    14    25   ar
    66    14    24   ar
    67    25    22   ar
    68     5    24    1
    69    24    13   ar
    70    10    44    2
    71    22    44    1
    72    22    23   ar
    73    44    64    1
    74    13    23   ar
    75    23     4    1
