@<TRIPOS>MOLECULE
?
 23 25 0 0 0
SMALL
GASTEIGER

@<TRIPOS>ATOM
      1 I          -0.9238    0.6945   18.4156 I       1  LIG1       -0.0219
      2 N           2.0249   -0.6350   11.6867 N.ar    1  LIG1       -0.0601
      3 N           1.9210   -1.3020   12.8143 N.ar    1  LIG1       -0.1270
      4 C           1.1927   -0.5989   13.7206 C.ar    1  LIG1        0.1384
      5 C           1.2852   -2.3975   15.4484 C.ar    1  LIG1       -0.0340
      6 H           1.7427   -2.9732   14.8486 H       1  LIG1        0.0639
      7 C           0.9613   -2.8308   16.7246 C.ar    1  LIG1       -0.0572
      8 H           1.1882   -3.7097   17.0030 H       1  LIG1        0.0619
      9 C           0.2996   -1.9649   17.5918 C.ar    1  LIG1       -0.0301
     10 H           0.0637   -2.2279   18.4721 H       1  LIG1        0.0643
     11 C           0.0024   -0.7011   17.1070 C.ar    1  LIG1        0.1023
     12 N           0.2870   -0.2500   15.8990 N.ar    1  LIG1       -0.2392
     13 C           0.9300   -1.1024   15.0577 C.ar    1  LIG1        0.0942
     14 N           1.3287    0.5185   11.8631 N.ar    1  LIG1       -0.2194
     15 C           0.7912    0.6057   13.1262 C.ar    1  LIG1        0.0961
     16 C           0.0268    1.7585   13.4606 C.ar    1  LIG1       -0.0340
     17 H          -0.3816    1.8368   14.3129 H       1  LIG1        0.0639
     18 C          -0.1076    2.7443   12.5354 C.ar    1  LIG1       -0.0583
     19 H          -0.5935    3.5312   12.7533 H       1  LIG1        0.0619
     20 C           0.4705    2.6087   11.2511 C.ar    1  LIG1       -0.0435
     21 H           0.3528    3.3037   10.6146 H       1  LIG1        0.0633
     22 C           1.1894    1.5091   10.9053 C.ar    1  LIG1        0.0314
     23 H           1.5804    1.4233   10.0435 H       1  LIG1        0.0831
@<TRIPOS>BOND
     1    23    22    1
     2    21    20    1
     3    22    20   ar
     4    22    14   ar
     5    20    18   ar
     6     2    14   ar
     7     2     3   ar
     8    14    15   ar
     9    18    19    1
    10    18    16   ar
    11     3     4   ar
    12    15    16   ar
    13    15     4   ar
    14    16    17    1
    15     4    13    1
    16     6     5    1
    17    13     5   ar
    18    13    12   ar
    19     5     7   ar
    20    12    11   ar
    21     7     8    1
    22     7     9   ar
    23    11     9   ar
    24    11     1    1
    25     9    10    1
