@<TRIPOS>MOLECULE
?
 43 44 0 0 0
SMALL
GASTEIGER

@<TRIPOS>ATOM
      1 C           3.4747   16.1439    6.2339 C.3     1  LIG1        0.2424
      2 C           4.6332   16.2614    7.1713 C.1     1  LIG1        0.1051
      3 C           2.9413   14.6760    6.3076 C.2     1  LIG1        0.3506
      4 C           3.7971   12.4294    5.7416 C.3     1  LIG1        0.1053
      5 C           3.1225   11.6332    6.8314 C.3     1  LIG1       -0.0254
      6 H           3.5806   11.7919    7.6826 H       1  LIG1        0.0268
      7 H           3.1625   10.6795    6.6107 H       1  LIG1        0.0268
      8 H           2.1863   11.9116    6.9069 H       1  LIG1        0.0268
      9 C           5.2329   12.0082    5.5422 C.3     1  LIG1       -0.0254
     10 H           5.7133   12.0739    6.3943 H       1  LIG1        0.0268
     11 H           5.6567   12.5954    4.8819 H       1  LIG1        0.0268
     12 H           5.2603   11.0828    5.2222 H       1  LIG1        0.0268
     13 C           3.0299   12.4254    4.4303 C.3     1  LIG1       -0.0254
     14 H           3.0446   11.5240    4.0459 H       1  LIG1        0.0268
     15 H           3.4485   13.0539    3.8057 H       1  LIG1        0.0268
     16 H           2.1025   12.6963    4.5933 H       1  LIG1        0.0268
     17 C           2.5723   18.3871    6.8547 C.ar    1  LIG1        0.0289
     18 C           1.5552   19.0888    7.5155 C.ar    1  LIG1       -0.0408
     19 H           0.7829   18.6253    7.8176 H       1  LIG1        0.0636
     20 C           1.6666   20.4530    7.7302 C.ar    1  LIG1       -0.0600
     21 H           0.9698   20.9178    8.1783 H       1  LIG1        0.0618
     22 C           2.7859   21.1455    7.2973 C.ar    1  LIG1       -0.0616
     23 H           2.8580   22.0822    7.4416 H       1  LIG1        0.0618
     24 C           3.7987   20.4547    6.6514 C.ar    1  LIG1       -0.0600
     25 H           4.5727   20.9209    6.3595 H       1  LIG1        0.0618
     26 C           3.6952   19.0891    6.4266 C.ar    1  LIG1       -0.0408
     27 H           4.3959   18.6300    5.9776 H       1  LIG1        0.0636
     28 C           3.9234   16.3028    4.7736 C.ar    1  LIG1        0.0008
     29 C           2.9721   16.6307    3.8166 C.ar    1  LIG1       -0.0550
     30 H           2.0946   16.8764    4.0858 H       1  LIG1        0.0621
     31 C           3.2997   16.6000    2.4689 C.ar    1  LIG1       -0.0614
     32 H           2.6403   16.8086    1.8180 H       1  LIG1        0.0618
     33 C           4.5796   16.2674    2.0666 C.ar    1  LIG1       -0.0617
     34 H           4.8015   16.2461    1.1432 H       1  LIG1        0.0618
     35 C           5.5367   15.9660    3.0249 C.ar    1  LIG1       -0.0614
     36 H           6.4221   15.7529    2.7533 H       1  LIG1        0.0618
     37 C           5.2146   15.9726    4.3726 C.ar    1  LIG1       -0.0550
     38 H           5.8734   15.7529    5.0211 H       1  LIG1        0.0621
     39 N           5.4968   16.3838    7.9160 N.1     1  LIG1       -0.1933
     40 N           2.4008   17.0175    6.6263 N.pl3   1  LIG1       -0.3141
     41 H           1.5972   16.6731    6.7278 H       1  LIG1        0.1484
     42 O           3.9638   13.8529    6.1786 O.3     1  LIG1       -0.4564
     43 O           1.7725   14.4209    6.4143 O.2     1  LIG1       -0.2468
@<TRIPOS>BOND
     1    34    33    1
     2    32    31    1
     3    33    31   ar
     4    33    35   ar
     5    31    29   ar
     6    36    35    1
     7    35    37   ar
     8    15    13    1
     9    29    30    1
    10    29    28   ar
    11    14    13    1
    12    37    28   ar
    13    37    38    1
    14    13    16    1
    15    13     4    1
    16    28     1    1
    17    11     9    1
    18    12     9    1
    19     9     4    1
    20     9    10    1
    21     4    42    1
    22     4     5    1
    23    27    26    1
    24    42     3    1
    25     1     3    1
    26     1    40    1
    27     1     2    1
    28     3    43    2
    29    25    24    1
    30    26    24   ar
    31    26    17   ar
    32     7     5    1
    33    40    41    1
    34    40    17    1
    35    24    22   ar
    36     5     8    1
    37     5     6    1
    38    17    18   ar
    39     2    39    3
    40    22    23    1
    41    22    20   ar
    42    18    20   ar
    43    18    19    1
    44    20    21    1
