@<TRIPOS>MOLECULE
N-(1,1-dimethylethoxycarbonyl)-(pyrrolidin-2-yl)boronic   acid
 33 33 0 0 0
SMALL
GASTEIGER

@<TRIPOS>ATOM
      1 O           3.1035    6.0524    5.7757 O.3     1  LIG1        0.0000
      2 H           2.3679    6.0916    6.0946 H       1  LIG1        0.0000
      3 O           2.4592    3.8273    5.3572 O.3     1  LIG1        0.0000
      4 H           2.7211    3.0873    5.0178 H       1  LIG1        0.0000
      5 O           5.5066    4.7277    7.0907 O.3     1  LIG1        0.0000
      6 O           7.1416    6.2919    6.7469 O.2     1  LIG1        0.0000
      7 N           5.8660    5.4731    5.0462 N.am    1  LIG1        0.0000
      8 C           6.2406    5.5604    6.3199 C.2     1  LIG1        0.0000
      9 C           4.7862    4.5843    4.5594 C.3     1  LIG1        0.0000
     10 H           5.0956    3.6586    4.6295 H       1  LIG1        0.0000
     11 C           4.7496    4.9172    3.0565 C.3     1  LIG1        0.0000
     12 H           4.1406    5.6769    2.8862 H       1  LIG1        0.0000
     13 H           4.4480    4.1839    2.4739 H       1  LIG1        0.0000
     14 C           6.2069    5.2752    2.7505 C.3     1  LIG1        0.0000
     15 H           6.6982    4.4788    2.7020 H       1  LIG1        0.0000
     16 H           6.3188    5.7598    1.9274 H       1  LIG1        0.0000
     17 C           6.6079    6.1166    3.9560 C.3     1  LIG1        0.0000
     18 H           7.5616    6.0833    4.1791 H       1  LIG1        0.0000
     19 H           6.3450    7.0592    3.8769 H       1  LIG1        0.0000
     20 C           5.5594    4.7993    8.5548 C.3     1  LIG1        0.0000
     21 C           5.1067    6.1800    9.0180 C.3     1  LIG1        0.0000
     22 H           4.9451    6.1745    9.9755 H       1  LIG1        0.0000
     23 H           4.1994    6.3773    8.7145 H       1  LIG1        0.0000
     24 H           5.7497    6.8933    8.7606 H       1  LIG1        0.0000
     25 C           4.5631    3.7213    8.9485 C.3     1  LIG1        0.0000
     26 H           3.7089    3.9351    8.5624 H       1  LIG1        0.0000
     27 H           4.8339    2.7924    8.5944 H       1  LIG1        0.0000
     28 H           4.5069    3.6402    9.9435 H       1  LIG1        0.0000
     29 C           6.9566    4.4484    9.0644 C.3     1  LIG1        0.0000
     30 H           7.2804    3.6310    8.6725 H       1  LIG1        0.0000
     31 H           7.6205    5.1516    8.8266 H       1  LIG1        0.0000
     32 H           6.9271    4.3498   10.0455 H       1  LIG1        0.0000
     33 B           3.3988    4.8051    5.2928 B       1  LIG1        0.0000
@<TRIPOS>BOND
     1    16    14    1
     2    13    11    1
     3    15    14    1
     4    14    11    1
     5    14    17    1
     6    12    11    1
     7    11     9    1
     8    19    17    1
     9    17    18    1
    10    17     7    1
    11     9    10    1
    12     9     7    1
    13     9    33    1
    14     4     3    1
    15     7     8   am
    16    33     3    1
    17    33     1    1
    18     1     2    1
    19     8     6    2
    20     8     5    1
    21     5    20    1
    22    20    25    1
    23    20    21    1
    24    20    29    1
    25    26    25    1
    26    27    25    1
    27    30    29    1
    28    23    21    1
    29    24    21    1
    30    31    29    1
    31    25    28    1
    32    21    22    1
    33    29    32    1
