@<TRIPOS>MOLECULE
?
 25 25 0 0 0
SMALL
GASTEIGER

@<TRIPOS>ATOM
      1 C           2.8700    2.6914    2.8187 C.2     1  LIG1        0.2876
      2 C           5.0337    3.0653    3.8174 C.3     1  LIG1        0.0370
      3 C           5.7664    3.9991    2.8598 C.ar    1  LIG1       -0.0303
      4 C           5.2139    5.1869    2.3941 C.ar    1  LIG1       -0.0571
      5 C           5.9358    6.0175    1.5328 C.ar    1  LIG1       -0.0615
      6 C           7.2215    5.6634    1.1334 C.ar    1  LIG1       -0.0617
      7 C           7.7800    4.4811    1.5908 C.ar    1  LIG1       -0.0615
      8 C           7.0609    3.6505    2.4474 C.ar    1  LIG1       -0.0571
      9 C           1.3407    2.9398    2.9000 C.3     1  LIG1        0.3490
     10 C           0.4484    1.7082    2.7869 C.2     1  LIG1        0.0510
     11 C           0.7035    0.6019    3.4854 C.2     1  LIG1        0.0143
     12 CL          2.0651    0.3682    4.5176 Cl      1  LIG1       -0.0915
     13 F           1.0402    3.6100    4.0606 F       1  LIG1       -0.1898
     14 F           1.0759    3.8087    1.8783 F       1  LIG1       -0.1898
     15 N           3.5849    3.2272    3.7998 N.am    1  LIG1       -0.3060
     16 O           3.3209    2.0993    1.8405 O.2     1  LIG1       -0.2689
     17 H           3.2442    3.5535    4.4889 H       1  LIG1        0.1492
     18 H           5.3448    3.2754    4.7133 H       1  LIG1        0.0512
     19 H           5.2724    2.1506    3.5631 H       1  LIG1        0.0512
     20 H           4.3410    5.4384    2.6559 H       1  LIG1        0.0621
     21 H           5.5216    6.8165    1.2157 H       1  LIG1        0.0618
     22 H           7.6902    6.2480    0.5331 H       1  LIG1        0.0618
     23 H           8.7320    4.2457    1.3560 H       1  LIG1        0.0618
     24 H           7.4481    2.8119    2.7682 H       1  LIG1        0.0621
     25 H           0.1587   -0.1545    3.4602 H       1  LIG1        0.0751
@<TRIPOS>BOND
     1    22     6    1
     2     6     5   ar
     3     6     7   ar
     4    21     5    1
     5    23     7    1
     6     5     4   ar
     7     7     8   ar
     8    16     1    2
     9    14     9    1
    10     4    20    1
    11     4     3   ar
    12     8    24    1
    13     8     3   ar
    14    10     9    1
    15    10    11    2
    16     1     9    1
    17     1    15   am
    18     3     2    1
    19     9    13    1
    20    25    11    1
    21    11    12    1
    22    19     2    1
    23    15     2    1
    24    15    17    1
    25     2    18    1
