@<TRIPOS>MOLECULE
4,4,5,5-Tetramethyl-2-(2-oxidophthalazin-1-yl)-  4,5-dihydro-1H-imidazole 3-Oxide 1-Oxyl
 78 82 0 0 0
SMALL
GASTEIGER

@<TRIPOS>ATOM
      1 N           4.0402    6.1774    9.1600 N.4     1  LIG1       -0.1144
      2 O           4.1286    5.2735   10.0570 O.3     1  LIG1       -0.1164
      3 C           5.1334    6.4447    8.1539 C.3     1  LIG1        0.0671
      4 C           6.2215    7.1918    8.9181 C.3     1  LIG1       -0.0427
      5 H           6.5101    6.6046    9.6069 H       1  LIG1        0.0249
      6 H           5.8887    8.0578    9.3314 H       1  LIG1        0.0249
      7 H           6.9058    7.4316    8.3468 H       1  LIG1        0.0249
      8 C           5.6543    5.1383    7.5975 C.3     1  LIG1       -0.0427
      9 H           6.1445    4.6669    8.2948 H       1  LIG1        0.0249
     10 H           6.2738    5.2931    6.9150 H       1  LIG1        0.0249
     11 H           4.9231    4.5724    7.2921 H       1  LIG1        0.0249
     12 C           4.3772    7.3336    7.1266 C.3     1  LIG1        0.0671
     13 C           3.6730    6.5561    6.0175 C.3     1  LIG1       -0.0427
     14 H           3.1559    7.1481    5.4922 H       1  LIG1        0.0249
     15 H           3.1529    5.7634    6.4001 H       1  LIG1        0.0249
     16 H           4.3375    6.2501    5.3680 H       1  LIG1        0.0249
     17 C           5.1779    8.4737    6.5340 C.3     1  LIG1       -0.0427
     18 H           4.5818    8.9794    5.9891 H       1  LIG1        0.0249
     19 H           5.9045    8.1405    6.0478 H       1  LIG1        0.0249
     20 H           5.5723    8.9794    7.1747 H       1  LIG1        0.0249
     21 N           3.2732    7.8756    7.9945 N.4     1  LIG1       -0.1144
     22 O           2.5216    8.8379    7.6512 O.3     1  LIG1       -0.1164
     23 C           3.0709    7.0948    9.0665 C.3     1  LIG1        0.2139
     24 C           1.9062    7.2628    9.9226 C.2     1  LIG1        0.1182
     25 C           0.5928    6.9707    9.4746 C.2     1  LIG1       -0.0037
     26 C           0.3228    6.3907    8.2226 C.2     1  LIG1       -0.0555
     27 H           1.0133    6.1438    7.6264 H       1  LIG1        0.0621
     28 C          -0.9692    6.1284    7.8705 C.2     1  LIG1       -0.0617
     29 H          -1.1094    5.7657    7.0731 H       1  LIG1        0.0618
     30 C          -2.0368    6.4085    8.7406 C.2     1  LIG1       -0.0645
     31 H          -2.9140    6.1792    8.4710 H       1  LIG1        0.0615
     32 C          -1.7931    6.9638    9.9617 C.2     1  LIG1       -0.0668
     33 H          -2.4921    7.0890   10.5373 H       1  LIG1        0.0585
     34 C          -0.4737    7.2581   10.3406 C.3     1  LIG1        0.0708
     35 C          -0.1232    7.8085   11.5969 C.2     1  LIG1        0.0437
     36 H          -0.8819    7.9751   12.1972 H       1  LIG1        0.0814
     37 N           1.0796    8.0844   12.0053 N.2     1  LIG1       -0.1542
     38 N           2.1112    7.8089   11.1331 N.4     1  LIG1       -0.1047
     39 O           3.2696    8.1208   11.5330 O.3     1  LIG1       -0.0612
     40 N           2.1993   13.1897    8.9452 N.4     2  LIG2       -0.1144
     41 O           1.1012   13.7887    9.1589 O.3     2  LIG2       -0.1164
     42 C           2.9791   12.5358   10.0466 C.3     2  LIG2        0.0671
     43 C           3.0616   13.4904   11.2284 C.3     2  LIG2       -0.0427
     44 H           2.1655   13.4927   11.6304 H       2  LIG2        0.0249
     45 H           3.3784   14.3907   10.9484 H       2  LIG2        0.0249
     46 H           3.7243   13.1855   11.9578 H       2  LIG2        0.0249
     47 C           2.2227   11.2644   10.4091 C.3     2  LIG2       -0.0427
     48 H           1.3850   11.4724   10.6548 H       2  LIG2        0.0249
     49 H           2.7127   10.7635   11.1855 H       2  LIG2        0.0249
     50 H           2.1414   10.6808    9.6814 H       2  LIG2        0.0249
     51 C           4.3334   12.2805    9.3323 C.3     2  LIG2        0.0671
     52 C           5.3154   13.4514    9.4323 C.3     2  LIG2       -0.0427
     53 H           6.1138   13.2564    8.7691 H       2  LIG2        0.0249
     54 H           5.6423   13.4927   10.3092 H       2  LIG2        0.0249
     55 H           4.8537   14.2843    9.2388 H       2  LIG2        0.0249
     56 C           5.0275   10.9726    9.6643 C.3     2  LIG2       -0.0427
     57 H           5.8501   10.9289    9.1440 H       2  LIG2        0.0249
     58 H           4.4097   10.2082    9.6001 H       2  LIG2        0.0249
     59 H           5.3752   11.0116   10.5644 H       2  LIG2        0.0249
     60 N           3.8926   12.2700    7.8953 N.4     2  LIG2       -0.1144
     61 O           4.6439   11.8751    6.9518 O.3     2  LIG2       -0.1164
     62 C           2.7273   12.9227    7.7479 C.3     2  LIG2        0.2139
     63 C           2.1754   13.3101    6.4541 C.2     2  LIG2        0.1182
     64 C           1.8240   12.3920    5.4426 C.2     2  LIG2       -0.0037
     65 C           1.8609   11.0045    5.6212 C.2     2  LIG2       -0.0555
     66 H           2.1658   10.6453    6.4385 H       2  LIG2        0.0621
     67 C           1.5017   10.1869    4.6000 C.2     2  LIG2       -0.0617
     68 H           1.4958    9.2630    4.7538 H       2  LIG2        0.0618
     69 C           1.1043   10.7068    3.3498 C.2     2  LIG2       -0.0645
     70 H           0.8334   10.1018    2.6829 H       2  LIG2        0.0615
     71 C           1.0573   12.0312    3.1587 C.2     2  LIG2       -0.0668
     72 H           0.8088   12.4294    2.4119 H       2  LIG2        0.0585
     73 C           1.4060   12.9162    4.2077 C.3     2  LIG2        0.0708
     74 C           1.3474   14.3103    4.0973 C.2     2  LIG2        0.0437
     75 H           1.1112   14.7569    3.3017 H       2  LIG2        0.0814
     76 N           1.6488   15.1647    5.0510 N.2     2  LIG2       -0.1542
     77 N           2.0881   14.6365    6.2411 N.4     2  LIG2       -0.1047
     78 O           2.4206   15.4776    7.1205 O.3     2  LIG2       -0.0612
@<TRIPOS>BOND
     1    72    71    1
     2    70    69    1
     3    71    69    2
     4    71    73    1
     5    75    74    1
     6    69    67    1
     7    74    73    1
     8    74    76    2
     9    73    64    1
    10    67    68    1
    11    67    65    2
    12    76    77    1
    13    16    13    1
    14    64    65    1
    15    64    63    2
    16    14    13    1
    17    65    66    1
    18    18    17    1
    19    13    15    1
    20    13    12    1
    21    19    17    1
    22    77    63    1
    23    77    78    1
    24    63    62    1
    25    17    12    1
    26    17    20    1
    27    10     8    1
    28    61    60    1
    29    29    28    1
    30    12    21    1
    31    12     3    1
    32    11     8    1
    33     8     3    1
    34     8     9    1
    35    27    26    1
    36    22    21    1
    37    62    60    1
    38    62    40    1
    39    28    26    2
    40    28    30    1
    41    60    51    1
    42    21    23    1
    43     3     4    1
    44     3     1    1
    45    26    25    1
    46     7     4    1
    47    31    30    1
    48    30    32    2
    49    53    52    1
    50     4     6    1
    51     4     5    1
    52    40    41    1
    53    40    42    1
    54    23     1    1
    55    23    24    1
    56    57    56    1
    57     1     2    1
    58    55    52    1
    59    51    52    1
    60    51    56    1
    61    51    42    1
    62    52    54    1
    63    25    24    2
    64    25    34    1
    65    58    56    1
    66    56    59    1
    67    50    47    1
    68    24    38    1
    69    32    34    1
    70    32    33    1
    71    42    47    1
    72    42    43    1
    73    34    35    1
    74    47    48    1
    75    47    49    1
    76    45    43    1
    77    38    39    1
    78    38    37    1
    79    43    44    1
    80    43    46    1
    81    35    37    2
    82    35    36    1
