@<TRIPOS>MOLECULE
C22 H22 Br2
 46 49 0 0 0
SMALL
GASTEIGER

@<TRIPOS>ATOM
      1 C          -2.2974    4.5083   -3.1888 C.3     1  LIG1        0.0233
      2 C          -2.8870    5.3811   -4.3286 C.3     1  LIG1       -0.0196
      3 C          -3.3830    4.2807   -5.3157 C.3     1  LIG1       -0.0213
      4 H          -4.1458    4.6067   -5.8559 H       1  LIG1        0.0319
      5 H          -2.6562    3.9964   -5.9246 H       1  LIG1        0.0319
      6 C          -4.7426    2.1649   -4.6535 C.ar    1  LIG1       -0.0443
      7 H          -5.1771    2.0816   -5.4940 H       1  LIG1        0.0631
      8 C          -5.0219    1.3003   -3.6070 C.ar    1  LIG1        0.0182
      9 C          -4.4141    1.3990   -2.3657 C.ar    1  LIG1       -0.0475
     10 H          -4.6423    0.7974   -1.6667 H       1  LIG1        0.0629
     11 C          -3.4600    2.3997   -2.1597 C.ar    1  LIG1       -0.0567
     12 H          -3.0325    2.4844   -1.3151 H       1  LIG1        0.0621
     13 C          -3.1340    3.2763   -3.2021 C.ar    1  LIG1       -0.0356
     14 C          -3.8017    3.1578   -4.4209 C.ar    1  LIG1       -0.0420
     15 C          -1.9443    6.2913   -5.1138 C.3     1  LIG1       -0.0586
     16 H          -1.1701    5.7746   -5.4192 H       1  LIG1        0.0235
     17 H          -1.6415    7.0236   -4.5367 H       1  LIG1        0.0235
     18 H          -2.4172    6.6608   -5.8887 H       1  LIG1        0.0235
     19 C          -4.1243    6.1529   -3.8243 C.3     1  LIG1       -0.0586
     20 H          -4.7080    5.5440   -3.3251 H       1  LIG1        0.0235
     21 H          -4.6142    6.5210   -4.5890 H       1  LIG1        0.0235
     22 H          -3.8364    6.8827   -3.2370 H       1  LIG1        0.0235
     23 C          -1.2489    4.7291   -2.3483 C.3     1  LIG1        0.0233
     24 C          -0.5437    6.0565   -1.9557 C.3     1  LIG1       -0.0196
     25 C          -0.0337    5.7351   -0.5187 C.3     1  LIG1       -0.0213
     26 H           0.7957    6.2354   -0.3157 H       1  LIG1        0.0319
     27 H          -0.7185    5.9568    0.1599 H       1  LIG1        0.0319
     28 C           1.0618    3.5039    0.2522 C.ar    1  LIG1       -0.0443
     29 H           1.5558    3.9084    0.9553 H       1  LIG1        0.0631
     30 C           1.1516    2.1397    0.0041 C.ar    1  LIG1        0.0182
     31 C           0.4457    1.5344   -1.0363 C.ar    1  LIG1       -0.0475
     32 H           0.5379    0.6034   -1.2013 H       1  LIG1        0.0629
     33 C          -0.4002    2.3143   -1.8327 C.ar    1  LIG1       -0.0567
     34 H          -0.8857    1.9140   -2.5451 H       1  LIG1        0.0621
     35 C          -0.5269    3.6761   -1.5816 C.ar    1  LIG1       -0.0356
     36 C           0.2254    4.2582   -0.5607 C.ar    1  LIG1       -0.0420
     37 C           0.6854    6.2920   -2.8485 C.3     1  LIG1       -0.0586
     38 H           1.2215    5.4726   -2.8905 H       1  LIG1        0.0235
     39 H           1.2280    7.0173   -2.4744 H       1  LIG1        0.0235
     40 H           0.3925    6.5365   -3.7515 H       1  LIG1        0.0235
     41 C          -1.4091    7.3103   -1.8635 C.3     1  LIG1       -0.0586
     42 H          -2.1828    7.1304   -1.2884 H       1  LIG1        0.0235
     43 H          -1.7182    7.5600   -2.7593 H       1  LIG1        0.0235
     44 H          -0.8826    8.0430   -1.4822 H       1  LIG1        0.0235
     45 BR         -6.3121   -0.0766   -3.8774 Br      1  LIG1       -0.0503
     46 BR          2.2847    1.0673    1.0851 Br      1  LIG1       -0.0503
@<TRIPOS>BOND
     1     5     3    1
     2    18    15    1
     3     4     3    1
     4     7     6    1
     5    16    15    1
     6     3    14    1
     7     3     2    1
     8    15    17    1
     9    15     2    1
    10     6    14   ar
    11     6     8   ar
    12    21    19    1
    13    14    13   ar
    14     2    19    1
    15     2     1    1
    16    45     8    1
    17    19    20    1
    18    19    22    1
    19    40    37    1
    20     8     9   ar
    21    13     1    1
    22    13    11   ar
    23     1    23    1
    24    38    37    1
    25    37    39    1
    26    37    24    1
    27    43    41    1
    28    34    33    1
    29     9    11   ar
    30     9    10    1
    31    23    24    1
    32    23    35    1
    33    11    12    1
    34    24    41    1
    35    24    25    1
    36    41    44    1
    37    41    42    1
    38    33    35   ar
    39    33    31   ar
    40    35    36   ar
    41    32    31    1
    42    31    30   ar
    43    36    25    1
    44    36    28   ar
    45    25    26    1
    46    25    27    1
    47    30    28   ar
    48    30    46    1
    49    28    29    1
