@<TRIPOS>MOLECULE
?
 35 36 0 0 0
SMALL
GASTEIGER

@<TRIPOS>ATOM
      1 CL         -1.6876    6.9384    2.8782 Cl      1  LIG1       -0.0797
      2 CL         -3.6298    5.2761    1.5621 Cl      1  LIG1       -0.0797
      3 CL         -0.9242    5.4508    0.5386 Cl      1  LIG1       -0.0797
      4 O           5.5543    4.0644    5.2000 O.2     1  LIG1       -0.2925
      5 N           1.8597    3.6330    3.5000 N.am    1  LIG1       -0.2291
      6 C           2.1693    4.8937    4.2133 C.3     1  LIG1        0.1020
      7 H           1.3369    5.2152    4.6639 H       1  LIG1        0.0647
      8 O          -0.2498    4.3430    3.3251 O.3     1  LIG1       -0.4457
      9 C           3.2224    4.6222    5.2811 C.3     1  LIG1        0.0402
     10 H           3.5136    5.4835    5.6729 H       1  LIG1        0.0373
     11 H           2.8167    4.0820    6.0051 H       1  LIG1        0.0373
     12 O           0.3776    2.4774    2.1899 O.2     1  LIG1       -0.2259
     13 C           4.4314    3.8925    4.7396 C.2     1  LIG1        0.1600
     14 C           4.1379    2.9153    3.6976 C.2     1  LIG1       -0.0049
     15 H           4.8349    2.3533    3.3806 H       1  LIG1        0.0665
     16 C           2.9135    2.7888    3.1776 C.2     1  LIG1        0.0070
     17 H           2.7555    2.0865    2.5568 H       1  LIG1        0.0787
     18 C           0.6252    3.3998    2.9175 C.2     1  LIG1        0.4079
     19 C          -1.5931    4.2220    2.8480 C.3     1  LIG1        0.1405
     20 H          -2.2180    4.1693    3.6139 H       1  LIG1        0.0741
     21 H          -1.6863    3.3943    2.3128 H       1  LIG1        0.0741
     22 C          -1.9255    5.4290    1.9931 C.3     1  LIG1        0.2241
     23 C           2.6122    5.9244    3.2622 C.1     1  LIG1       -0.0735
     24 C           2.9898    6.7978    2.5390 C.1     1  LIG1       -0.0644
     25 C           3.4631    7.9001    1.7455 C.ar    1  LIG1        0.0250
     26 C           2.7712    8.3092    0.6074 C.ar    1  LIG1       -0.0463
     27 H           1.9989    7.8383    0.3162 H       1  LIG1        0.0630
     28 C           3.2280    9.4169   -0.0980 C.ar    1  LIG1       -0.0606
     29 H           2.7569    9.7071   -0.8701 H       1  LIG1        0.0618
     30 C           4.3531   10.1012    0.3072 C.ar    1  LIG1       -0.0617
     31 H           4.6479   10.8612   -0.1799 H       1  LIG1        0.0618
     32 C           5.0518    9.6823    1.4213 C.ar    1  LIG1       -0.0606
     33 H           5.8370   10.1449    1.6912 H       1  LIG1        0.0618
     34 C           4.6094    8.5921    2.1445 C.ar    1  LIG1       -0.0463
     35 H           5.0864    8.3107    2.9166 H       1  LIG1        0.0630
@<TRIPOS>BOND
     1    29    28    1
     2    31    30    1
     3    28    30   ar
     4    28    26   ar
     5    30    32   ar
     6    27    26    1
     7     3    22    1
     8    26    25   ar
     9    32    33    1
    10    32    34   ar
    11     2    22    1
    12    25    34   ar
    13    25    24    1
    14    22    19    1
    15    22     1    1
    16    34    35    1
    17    12    18    2
    18    21    19    1
    19    24    23    3
    20    17    16    1
    21    19     8    1
    22    19    20    1
    23    18     8    1
    24    18     5   am
    25    16     5    1
    26    16    14    2
    27    23     6    1
    28    15    14    1
    29     5     6    1
    30    14    13    1
    31     6     7    1
    32     6     9    1
    33    13     4    2
    34    13     9    1
    35     9    10    1
    36     9    11    1
