@<TRIPOS>MOLECULE
?
 53 55 0 0 0
SMALL
GASTEIGER

@<TRIPOS>ATOM
      1 O          -0.2282   -3.9965  -11.2878 O.2     1  LIG1       -0.2512
      2 N          -3.4033   -3.8597   -9.8914 N.am    1  LIG1       -0.3045
      3 H          -3.4631   -4.4214  -10.5400 H       1  LIG1        0.1494
      4 C          -2.4930   -1.7185   -9.2885 C.3     1  LIG1        0.0471
      5 H          -2.5878   -0.7534   -9.4278 H       1  LIG1        0.0406
      6 O           0.4628    0.3848   -6.8666 O.2     1  LIG1       -0.2512
      7 C          -3.4424   -2.4557  -10.2123 C.3     1  LIG1        0.0678
      8 H          -3.1255   -2.3421  -11.1322 H       1  LIG1        0.0539
      9 O          -0.1842   -0.0332   -8.9627 O.3     1  LIG1       -0.4581
     10 C          -3.2812   -4.3473   -8.6484 C.2     1  LIG1        0.2448
     11 O          -0.8173   -1.9040  -10.9808 O.3     1  LIG1       -0.4571
     12 C          -3.1271   -3.3505   -7.5513 C.ar    1  LIG1        0.0440
     13 O          -5.6728   -2.5569  -11.0642 O.3     1  LIG1       -0.4629
     14 C          -3.3100   -3.7631   -6.2190 C.ar    1  LIG1       -0.0038
     15 H          -3.4984   -4.6494   -6.0077 H       1  LIG1        0.0663
     16 O          -5.0361   -1.2047  -12.6837 O.2     1  LIG1       -0.2512
     17 C          -3.2006   -2.8243   -5.2611 C.ar    1  LIG1        0.1670
     18 O          -3.3058   -5.5419   -8.4233 O.2     1  LIG1       -0.2702
     19 C          -3.0565   -1.6721   -3.3518 C.3     1  LIG1        0.2332
     20 H          -2.2300   -1.6691   -2.8444 H       1  LIG1        0.1166
     21 H          -3.7823   -1.4226   -2.7584 H       1  LIG1        0.1166
     22 O          -3.2908   -2.9579   -3.8939 O.3     1  LIG1       -0.4526
     23 C          -2.9743   -1.5145   -5.5737 C.ar    1  LIG1        0.1665
     24 O          -2.9720   -0.7634   -4.4259 O.3     1  LIG1       -0.4526
     25 C          -2.7789   -1.0918   -6.8516 C.ar    1  LIG1       -0.0118
     26 H          -2.6183   -0.1970   -7.0478 H       1  LIG1        0.0658
     27 C          -2.8311   -2.0562   -7.8557 C.ar    1  LIG1       -0.0230
     28 C          -1.0638   -2.1304   -9.5717 C.3     1  LIG1        0.1480
     29 H          -0.9895   -3.0932   -9.4038 H       1  LIG1        0.0778
     30 C          -0.0434   -1.4388   -8.7293 C.3     1  LIG1        0.1376
     31 H          -0.2241   -1.6281   -7.7854 H       1  LIG1        0.0769
     32 C           1.3516   -1.8506   -9.0533 C.3     1  LIG1       -0.0241
     33 H           1.5401   -1.6459   -9.9719 H       1  LIG1        0.0266
     34 H           1.4471   -2.7949   -8.9090 H       1  LIG1        0.0266
     35 H           1.9648   -1.3770   -8.4864 H       1  LIG1        0.0266
     36 C           0.1166    0.7642   -7.9297 C.2     1  LIG1        0.3043
     37 C          -0.0209    2.1829   -8.3131 C.3     1  LIG1        0.0332
     38 H          -0.9332    2.3629   -8.5522 H       1  LIG1        0.0342
     39 H           0.5488    2.3684   -9.0621 H       1  LIG1        0.0342
     40 H           0.2322    2.7400   -7.5729 H       1  LIG1        0.0342
     41 C          -0.4720   -2.9463  -11.7319 C.2     1  LIG1        0.3043
     42 C          -0.4742   -2.6403  -13.1807 C.3     1  LIG1        0.0332
     43 H           0.1175   -1.9040  -13.3528 H       1  LIG1        0.0342
     44 H          -1.3637   -2.4070  -13.4578 H       1  LIG1        0.0342
     45 H          -0.1784   -3.4100  -13.6716 H       1  LIG1        0.0342
     46 C          -4.8125   -1.9016  -10.1212 C.3     1  LIG1        0.1114
     47 H          -5.1565   -2.0284   -9.2228 H       1  LIG1        0.0716
     48 H          -4.7918   -0.9497  -10.3047 H       1  LIG1        0.0716
     49 C          -5.6892   -2.1234  -12.3152 C.2     1  LIG1        0.3040
     50 C          -6.5670   -2.9131  -13.1820 C.3     1  LIG1        0.0332
     51 H          -7.4671   -2.8691  -12.8505 H       1  LIG1        0.0342
     52 H          -6.2729   -3.8272  -13.1883 H       1  LIG1        0.0342
     53 H          -6.5372   -2.5615  -14.0740 H       1  LIG1        0.0342
@<TRIPOS>BOND
     1    53    50    1
     2    45    42    1
     3    44    42    1
     4    43    42    1
     5    52    50    1
     6    50    51    1
     7    50    49    1
     8    42    41    1
     9    16    49    2
    10    49    13    1
    11    41     1    2
    12    41    11    1
    13     8     7    1
    14    13    46    1
    15    11    28    1
    16     3     2    1
    17    48    46    1
    18     7    46    1
    19     7     2    1
    20     7     4    1
    21    46    47    1
    22    33    32    1
    23     2    10   am
    24    28    29    1
    25    28     4    1
    26    28    30    1
    27     5     4    1
    28     4    27    1
    29    39    37    1
    30    32    34    1
    31    32    30    1
    32    32    35    1
    33     9    30    1
    34     9    36    1
    35    30    31    1
    36    10    18    2
    37    10    12    1
    38    38    37    1
    39    37    36    1
    40    37    40    1
    41    36     6    2
    42    27    12   ar
    43    27    25   ar
    44    12    14   ar
    45    26    25    1
    46    25    23   ar
    47    14    15    1
    48    14    17   ar
    49    23    17   ar
    50    23    24    1
    51    17    22    1
    52    24    19    1
    53    22    19    1
    54    19    20    1
    55    19    21    1
