@<TRIPOS>MOLECULE
C29 H22 O1
 52 55 0 0 0
SMALL
GASTEIGER

@<TRIPOS>ATOM
      1 O           7.2624    3.4826    2.4170 O.3     1  LIG1       -0.4945
      2 C           3.8605    5.2496    3.7935 C.ar    1  LIG1       -0.0084
      3 C           4.5877    5.9182    2.8370 C.ar    1  LIG1       -0.0534
      4 C           3.9963    6.8963    2.0074 C.ar    1  LIG1       -0.0606
      5 C           2.6707    7.1942    2.1399 C.ar    1  LIG1       -0.0540
      6 C           0.4896    6.8213    3.2517 C.ar    1  LIG1       -0.0540
      7 C          -0.2737    6.1574    4.1628 C.ar    1  LIG1       -0.0612
      8 C           0.2978    5.1465    4.9648 C.ar    1  LIG1       -0.0611
      9 C           1.6303    4.8412    4.8570 C.ar    1  LIG1       -0.0534
     10 C           2.4636    5.5266    3.9301 C.ar    1  LIG1       -0.0101
     11 C           1.8705    6.5199    3.0972 C.ar    1  LIG1       -0.0173
     12 C           4.5717    4.2887    4.6962 C.ar    1  LIG1        0.0059
     13 C           5.1886    3.1324    4.1906 C.ar    1  LIG1       -0.0043
     14 C           5.9260    2.3019    5.0356 C.ar    1  LIG1       -0.0532
     15 C           6.0756    2.6098    6.3773 C.ar    1  LIG1       -0.0600
     16 C           5.4688    3.7369    6.8952 C.ar    1  LIG1       -0.0457
     17 C           4.7019    4.5739    6.0758 C.ar    1  LIG1        0.0332
     18 C           4.0621    5.6996    6.7024 C.1     1  LIG1       -0.0660
     19 C           3.5259    6.5508    7.3486 C.1     1  LIG1       -0.1003
     20 C           2.8472    7.5648    8.1548 C.3     1  LIG1       -0.0022
     21 C           5.0745    2.7197    2.7561 C.ar    1  LIG1        0.0397
     22 C           6.1656    2.8693    1.8881 C.ar    1  LIG1        0.1290
     23 C           6.0937    2.4187    0.5702 C.ar    1  LIG1       -0.0193
     24 C           4.9260    1.8163    0.1185 C.ar    1  LIG1       -0.0571
     25 C           3.8452    1.6420    0.9565 C.ar    1  LIG1       -0.0455
     26 C           3.9155    2.0796    2.2895 C.ar    1  LIG1        0.0361
     27 C           2.8422    1.7968    3.1971 C.1     1  LIG1       -0.0659
     28 C           1.9497    1.5201    3.9500 C.1     1  LIG1       -0.1003
     29 C           0.8431    1.2385    4.8492 C.3     1  LIG1       -0.0022
     30 C           8.4940    3.3951    1.6898 C.3     1  LIG1        0.0788
     31 H           5.5677    5.7079    2.7515 H       1  LIG1        0.0624
     32 H           4.5686    7.3668    1.3383 H       1  LIG1        0.0618
     33 H           2.2552    7.8696    1.6014 H       1  LIG1        0.0624
     34 H           0.0904    7.5331    2.6597 H       1  LIG1        0.0624
     35 H          -1.2635    6.3427    4.2642 H       1  LIG1        0.0618
     36 H          -0.2865    4.6427    5.5673 H       1  LIG1        0.0618
     37 H           2.0233    4.1481    5.4266 H       1  LIG1        0.0624
     38 H           6.3567    1.4810    4.6679 H       1  LIG1        0.0624
     39 H           6.6049    2.0249    6.9591 H       1  LIG1        0.0618
     40 H           5.5544    3.9647    7.8523 H       1  LIG1        0.0630
     41 H           3.3357    8.4056    8.1735 H       1  LIG1        0.0362
     42 H           2.7403    7.2362    9.0835 H       1  LIG1        0.0362
     43 H           1.9298    7.7592    7.7835 H       1  LIG1        0.0362
     44 H           6.8546    2.5326   -0.0398 H       1  LIG1        0.0654
     45 H           4.8872    1.4908   -0.8366 H       1  LIG1        0.0619
     46 H           3.0340    1.2114    0.6424 H       1  LIG1        0.0630
     47 H           0.4630    0.3889    4.7215 H       1  LIG1        0.0362
     48 H           1.1103    1.3080    5.7998 H       1  LIG1        0.0362
     49 H           0.1071    1.9427    4.7398 H       1  LIG1        0.0362
     50 H           9.1878    3.8279    2.2682 H       1  LIG1        0.0660
     51 H           8.4286    3.8615    0.8106 H       1  LIG1        0.0660
     52 H           8.7138    2.4526    1.5096 H       1  LIG1        0.0660
@<TRIPOS>BOND
     1    45    24    1
     2    44    23    1
     3    24    23   ar
     4    24    25   ar
     5    23    22   ar
     6    46    25    1
     7    51    30    1
     8    25    26   ar
     9    32     4    1
    10    52    30    1
    11    33     5    1
    12    30    50    1
    13    30     1    1
    14    22     1    1
    15    22    21   ar
    16     4     5   ar
    17     4     3   ar
    18     5    11   ar
    19    26    21   ar
    20    26    27    1
    21    34     6    1
    22    31     3    1
    23    21    13    1
    24     3     2   ar
    25    11     6   ar
    26    11    10   ar
    27    27    28    3
    28     6     7   ar
    29     2    10   ar
    30     2    12    1
    31    10     9   ar
    32    28    29    1
    33     7    35    1
    34     7     8   ar
    35    13    12   ar
    36    13    14   ar
    37    38    14    1
    38    12    17   ar
    39    47    29    1
    40    49    29    1
    41    29    48    1
    42     9     8   ar
    43     9    37    1
    44     8    36    1
    45    14    15   ar
    46    17    18    1
    47    17    16   ar
    48    15    16   ar
    49    15    39    1
    50    18    19    3
    51    16    40    1
    52    19    20    1
    53    43    20    1
    54    20    41    1
    55    20    42    1
