@<TRIPOS>MOLECULE
?
 48 51 0 0 0
SMALL
GASTEIGER

@<TRIPOS>ATOM
      1 C           6.6498   -1.6015    3.6758 C.ar    1  LIG1       -0.0138
      2 C           6.0882   -0.9650    4.7669 C.ar    1  LIG1       -0.0537
      3 H           6.2516   -0.0634    4.9238 H       1  LIG1        0.0624
      4 C           5.2766   -1.6937    5.6277 C.ar    1  LIG1       -0.0612
      5 H           4.8991   -1.2773    6.3679 H       1  LIG1        0.0618
      6 C           5.0248   -3.0229    5.3945 C.ar    1  LIG1       -0.0615
      7 H           4.4838   -3.4992    5.9818 H       1  LIG1        0.0618
      8 C           5.5677   -3.6605    4.2941 C.ar    1  LIG1       -0.0577
      9 H           5.3824   -4.5586    4.1351 H       1  LIG1        0.0621
     10 C           6.3868   -2.9566    3.4353 C.ar    1  LIG1       -0.0356
     11 C           7.1414   -3.3554    2.1997 C.3     1  LIG1       -0.0053
     12 H           6.5343   -3.6437    1.4998 H       1  LIG1        0.0359
     13 H           7.7674   -4.0715    2.3896 H       1  LIG1        0.0359
     14 C           7.8636   -2.0987    1.8002 C.2     1  LIG1       -0.0600
     15 C           8.7502   -2.0464    0.6080 C.3     1  LIG1       -0.0426
     16 H           9.1511   -1.1763    0.5450 H       1  LIG1        0.0275
     17 H           8.2343   -2.2199   -0.1827 H       1  LIG1        0.0275
     18 H           9.4393   -2.7090    0.6926 H       1  LIG1        0.0275
     19 C           7.5663   -1.1036    2.6518 C.2     1  LIG1       -0.0094
     20 C           8.0934    0.2860    2.6559 C.ar    1  LIG1        0.0050
     21 C           9.3121    0.5824    3.2670 C.ar    1  LIG1       -0.0522
     22 H           9.8065   -0.1109    3.6397 H       1  LIG1        0.0624
     23 C           9.8104    1.8642    3.3382 C.ar    1  LIG1       -0.0611
     24 H          10.6369    2.0258    3.7326 H       1  LIG1        0.0618
     25 C           9.0847    2.8841    2.8294 C.ar    1  LIG1       -0.0599
     26 H           9.4085    3.7546    2.8861 H       1  LIG1        0.0618
     27 C           7.8732    2.6480    2.2286 C.ar    1  LIG1       -0.0387
     28 H           7.3823    3.3586    1.8849 H       1  LIG1        0.0637
     29 C           7.3752    1.3569    2.1291 C.ar    1  LIG1        0.0557
     30 C           6.0826    2.6001   -0.7332 C.ar    1  LIG1        0.1085
     31 C           6.3417    1.6583   -1.7156 C.ar    1  LIG1       -0.0348
     32 H           6.0585    0.7783   -1.6082 H       1  LIG1        0.0637
     33 C           7.0189    2.0324   -2.8448 C.ar    1  LIG1       -0.0570
     34 H           7.1748    1.4001   -3.5086 H       1  LIG1        0.0621
     35 C           7.4768    3.3241   -3.0265 C.ar    1  LIG1       -0.0503
     36 C           8.2473    3.6956   -4.2766 C.3     1  LIG1       -0.0397
     37 H           9.1296    3.3189   -4.2322 H       1  LIG1        0.0278
     38 H           8.3096    4.6517   -4.3416 H       1  LIG1        0.0278
     39 H           7.7908    3.3506   -5.0476 H       1  LIG1        0.0278
     40 C           7.2060    4.2509   -2.0407 C.ar    1  LIG1       -0.0570
     41 H           7.4951    5.1289   -2.1491 H       1  LIG1        0.0621
     42 C           6.5159    3.9051   -0.8991 C.ar    1  LIG1       -0.0348
     43 H           6.3423    4.5428   -0.2457 H       1  LIG1        0.0637
     44 N           6.1243    1.0646    1.5245 N.pl3   1  LIG1       -0.2157
     45 H           6.0699    0.3188    1.2284 H       1  LIG1        0.1737
     46 O           4.0648    1.3426    0.2890 O.2     1  LIG1       -0.1500
     47 O           4.9912    3.2683    1.5120 O.2     1  LIG1       -0.1500
     48 S           5.1943    2.1145    0.7000 S.O2    1  LIG1        0.0724
@<TRIPOS>BOND
     1    39    36    1
     2    38    36    1
     3    36    37    1
     4    36    35    1
     5    34    33    1
     6    35    33   ar
     7    35    40   ar
     8    33    31   ar
     9    41    40    1
    10    40    42   ar
    11    31    32    1
    12    31    30   ar
    13    42    30   ar
    14    42    43    1
    15    30    48    1
    16    17    15    1
    17    46    48    2
    18    16    15    1
    19    15    18    1
    20    15    14    1
    21    48    47    2
    22    48    44    1
    23    45    44    1
    24    12    11    1
    25    44    29    1
    26    14    11    1
    27    14    19    2
    28    28    27    1
    29    29    27   ar
    30    29    20   ar
    31    11    13    1
    32    11    10    1
    33    27    25   ar
    34    19    20    1
    35    19     1    1
    36    20    21   ar
    37    25    26    1
    38    25    23   ar
    39    21    23   ar
    40    21    22    1
    41    23    24    1
    42    10     1   ar
    43    10     8   ar
    44     1     2   ar
    45     9     8    1
    46     8     6   ar
    47     2     3    1
    48     2     4   ar
    49     6     4   ar
    50     6     7    1
    51     4     5    1
