@<TRIPOS>MOLECULE
?
 46 47 0 0 0
SMALL
GASTEIGER

@<TRIPOS>ATOM
      1 S           0.0263    2.0827    5.2857 S.O2    1  LIG1        0.0590
      2 O           0.1328    0.9451    6.1469 O.2     1  LIG1       -0.1530
      3 O          -1.2413    2.4636    4.7327 O.2     1  LIG1       -0.1530
      4 N           0.5626    3.3422    6.1693 N.3     1  LIG1       -0.1819
      5 C           1.1599    1.8639    3.9501 C.ar    1  LIG1        0.1053
      6 C           0.9001    2.4380    2.7079 C.ar    1  LIG1       -0.0351
      7 C           1.8762    2.4001    1.7311 C.ar    1  LIG1       -0.0570
      8 C           3.1128    1.8061    1.9598 C.ar    1  LIG1       -0.0503
      9 C           3.3436    1.2117    3.2001 C.ar    1  LIG1       -0.0570
     10 C           2.3765    1.2396    4.1966 C.ar    1  LIG1       -0.0351
     11 C           4.1737    1.8113    0.8997 C.3     1  LIG1       -0.0397
     12 C           0.5085    4.7129    5.6244 C.3     1  LIG1        0.0629
     13 C           0.4609    5.7116    6.8120 C.3     1  LIG1        0.0354
     14 C           1.7332    5.7433    7.6298 C.3     1  LIG1       -0.0539
     15 C          -0.7565    5.3842    7.6586 C.2     1  LIG1        0.1350
     16 O          -0.6462    4.9139    8.7726 O.2     1  LIG1       -0.2974
     17 C          -2.1092    5.6374    7.0709 C.3     1  LIG1       -0.0057
     18 C           1.6137    5.0391    4.6312 C.ar    1  LIG1       -0.0281
     19 C           2.8813    4.4695    4.7212 C.ar    1  LIG1       -0.0549
     20 C           3.8469    4.7319    3.7639 C.ar    1  LIG1       -0.0312
     21 C           3.5290    5.5933    2.7327 C.ar    1  LIG1        0.1262
     22 C           2.2953    6.2037    2.6267 C.ar    1  LIG1       -0.0312
     23 C           1.3319    5.9155    3.5843 C.ar    1  LIG1       -0.0549
     24 N           4.5460    5.8528    1.6999 N.pl3   1  LIG1        0.0564
     25 O           4.2653    6.6208    0.7916 O.2     1  LIG1       -0.1261
     26 O           5.6284    5.2845    1.7909 O.2     1  LIG1       -0.1261
     27 H           0.0074    2.8764    2.5140 H       1  LIG1        0.0637
     28 H           1.6900    2.8246    0.8614 H       1  LIG1        0.0621
     29 H           4.1990    0.7776    3.4243 H       1  LIG1        0.0621
     30 H           2.5760    0.8961    5.0443 H       1  LIG1        0.0637
     31 H           3.8566    1.2442    0.1648 H       1  LIG1        0.0278
     32 H           5.0478    1.5404    1.2921 H       1  LIG1        0.0278
     33 H           4.2214    2.6068    0.5710 H       1  LIG1        0.0278
     34 H          -0.3797    4.8034    5.1617 H       1  LIG1        0.0533
     35 H           0.3052    6.6800    6.4342 H       1  LIG1        0.0394
     36 H           1.6379    6.3719    8.4229 H       1  LIG1        0.0237
     37 H           2.4941    6.0505    7.0900 H       1  LIG1        0.0237
     38 H           1.9804    4.8612    7.9971 H       1  LIG1        0.0237
     39 H          -2.5537    4.8730    6.9775 H       1  LIG1        0.0306
     40 H          -2.0548    6.1468    6.2547 H       1  LIG1        0.0306
     41 H          -2.7324    6.1024    7.6936 H       1  LIG1        0.0306
     42 H           3.1121    3.8643    5.4423 H       1  LIG1        0.0621
     43 H           4.7425    4.3161    3.7718 H       1  LIG1        0.0640
     44 H           2.1367    6.8267    1.9299 H       1  LIG1        0.0640
     45 H           0.4690    6.2490    3.5124 H       1  LIG1        0.0621
     46 H           1.2954    3.1549    6.6593 H       1  LIG1        0.1487
@<TRIPOS>BOND
     1    31    11    1
     2    33    11    1
     3    25    24    2
     4    28     7    1
     5    11    32    1
     6    11     8    1
     7    24    26    2
     8    24    21    1
     9     7     8   ar
    10     7     6   ar
    11    44    22    1
    12     8     9   ar
    13    27     6    1
    14    22    21   ar
    15    22    23   ar
    16     6     5   ar
    17    21    20   ar
    18     9    29    1
    19     9    10   ar
    20    45    23    1
    21    23    18   ar
    22    20    43    1
    23    20    19   ar
    24     5    10   ar
    25     5     1    1
    26    10    30    1
    27    18    19   ar
    28    18    12    1
    29    19    42    1
    30     3     1    2
    31    34    12    1
    32     1     2    2
    33     1     4    1
    34    12     4    1
    35    12    13    1
    36     4    46    1
    37    40    17    1
    38    35    13    1
    39    13    14    1
    40    13    15    1
    41    39    17    1
    42    17    15    1
    43    17    41    1
    44    37    14    1
    45    14    38    1
    46    14    36    1
    47    15    16    2
