@<TRIPOS>MOLECULE
?
 41 43 0 0 0
SMALL
GASTEIGER

@<TRIPOS>ATOM
      1 C           2.6354    1.5584    0.3833 C.ar    1  LIG1        0.0590
      2 C           1.8335    0.4298    0.3139 C.ar    1  LIG1       -0.0385
      3 H           1.8240   -0.1010   -0.4735 H       1  LIG1        0.0637
      4 C           1.0482    0.0814    1.3980 C.ar    1  LIG1       -0.0599
      5 H           0.4910   -0.6873    1.3581 H       1  LIG1        0.0618
      6 C           1.0793    0.8553    2.5358 C.ar    1  LIG1       -0.0611
      7 H           0.5393    0.6156    3.2798 H       1  LIG1        0.0618
      8 C           1.8874    1.9815    2.6147 C.ar    1  LIG1       -0.0525
      9 H           1.8964    2.5025    3.4090 H       1  LIG1        0.0624
     10 C           2.6886    2.3515    1.5306 C.ar    1  LIG1        0.0005
     11 C           3.5958    3.5199    1.5870 C.2     1  LIG1       -0.0410
     12 C           3.3163    4.5738    2.6147 C.3     1  LIG1       -0.0391
     13 H           3.5948    4.2519    3.4966 H       1  LIG1        0.0278
     14 H           2.3552    4.7712    2.6277 H       1  LIG1        0.0278
     15 H           3.8138    5.3880    2.3918 H       1  LIG1        0.0278
     16 C           4.6332    3.5411    0.7397 C.2     1  LIG1       -0.0502
     17 C           5.7376    4.5621    0.7363 C.3     1  LIG1       -0.0417
     18 H           5.6458    5.1448    1.5185 H       1  LIG1        0.0275
     19 H           5.6812    5.1014   -0.0807 H       1  LIG1        0.0275
     20 H           6.6053    4.1062    0.7684 H       1  LIG1        0.0275
     21 C           4.7662    2.4649   -0.2949 C.3     1  LIG1        0.0563
     22 H           5.2401    2.8327   -1.0814 H       1  LIG1        0.0529
     23 H           5.3174    1.7306    0.0746 H       1  LIG1        0.0529
     24 C           2.1724    4.2573   -1.4361 C.ar    1  LIG1        0.1087
     25 C           2.9694    5.3718   -1.6330 C.ar    1  LIG1       -0.0348
     26 H           3.7768    5.3046   -2.1282 H       1  LIG1        0.0637
     27 C           2.5750    6.5794   -1.1014 C.ar    1  LIG1       -0.0570
     28 H           3.1183    7.3466   -1.2358 H       1  LIG1        0.0621
     29 C           1.3953    6.6969   -0.3712 C.ar    1  LIG1       -0.0503
     30 C           1.0055    8.0210    0.2194 C.3     1  LIG1       -0.0397
     31 H           0.1867    7.9152    0.7467 H       1  LIG1        0.0278
     32 H           0.8500    8.6672   -0.5004 H       1  LIG1        0.0278
     33 H           1.7274    8.3452    0.7987 H       1  LIG1        0.0278
     34 C           0.6163    5.5690   -0.1934 C.ar    1  LIG1       -0.0570
     35 H          -0.1916    5.6359    0.3018 H       1  LIG1        0.0621
     36 C           0.9872    4.3471   -0.7198 C.ar    1  LIG1       -0.0348
     37 H           0.4395    3.5811   -0.5932 H       1  LIG1        0.0637
     38 N           3.4718    1.9167   -0.7302 N.pl3   1  LIG1       -0.1984
     39 O           1.5727    1.8986   -2.3172 O.2     1  LIG1       -0.1498
     40 O           3.7457    2.8788   -2.9928 O.2     1  LIG1       -0.1498
     41 S           2.7273    2.6783   -2.0022 S.O2    1  LIG1        0.0750
@<TRIPOS>BOND
     1    40    41    2
     2    39    41    2
     3    26    25    1
     4    41    24    1
     5    41    38    1
     6    25    24   ar
     7    25    27   ar
     8    24    36   ar
     9    28    27    1
    10    27    29   ar
    11    22    21    1
    12    38    21    1
    13    38     1    1
    14    36    37    1
    15    36    34   ar
    16    32    30    1
    17     3     2    1
    18    29    34   ar
    19    29    30    1
    20    21    23    1
    21    21    16    1
    22    34    35    1
    23    19    17    1
    24    30    31    1
    25    30    33    1
    26     2     1   ar
    27     2     4   ar
    28     1    10   ar
    29    17    16    1
    30    17    20    1
    31    17    18    1
    32    16    11    2
    33     5     4    1
    34     4     6   ar
    35    10    11    1
    36    10     8   ar
    37    11    12    1
    38    15    12    1
    39     6     8   ar
    40     6     7    1
    41     8     9    1
    42    12    14    1
    43    12    13    1
