@<TRIPOS>MOLECULE
C20 H25 N O4
 49 52 0 0 0
SMALL
GASTEIGER

@<TRIPOS>ATOM
      1 O          -8.5245   -1.2170   -9.4439 O.3     1  LIG1       -0.4532
      2 O          -9.1775    0.0518   -7.7705 O.2     1  LIG1       -0.2483
      3 O          -9.4248   -3.4465   -7.0750 O.3     1  LIG1       -0.2233
      4 O          -6.1442   -5.1664   -1.8867 O.3     1  LIG1       -0.4951
      5 N          -6.6689   -2.5772   -7.7401 N.2     1  LIG1       -0.2708
      6 C          -8.0577   -2.5533   -9.7844 C.3     1  LIG1        0.1466
      7 C          -8.5524   -0.9144   -8.1349 C.2     1  LIG1        0.3355
      8 C          -7.7297   -1.7504   -7.1545 C.3     1  LIG1        0.1802
      9 C          -6.8666   -2.9355   -8.9431 C.2     1  LIG1        0.0589
     10 C          -5.8720   -3.5261   -9.8957 C.3     1  LIG1        0.0065
     11 C          -6.5085   -4.7669  -10.5581 C.3     1  LIG1       -0.0438
     12 C          -7.5786   -4.1777  -11.5001 C.3     1  LIG1       -0.0428
     13 C          -7.5113   -2.6582  -11.2206 C.3     1  LIG1        0.0161
     14 C          -5.9714   -2.4512  -11.0232 C.3     1  LIG1       -0.0177
     15 C          -5.5657   -1.0444  -10.5740 C.3     1  LIG1       -0.0586
     16 C          -5.1341   -2.7935  -12.2527 C.3     1  LIG1       -0.0586
     17 C          -8.1892   -1.7823  -12.2381 C.3     1  LIG1       -0.0553
     18 C          -8.6756   -2.5693   -6.2509 C.3     1  LIG1        0.1512
     19 C          -7.9097   -3.2859   -5.1459 C.ar    1  LIG1       -0.0130
     20 C          -7.4772   -2.5719   -4.0250 C.ar    1  LIG1       -0.0525
     21 C          -6.8604   -3.2209   -2.9691 C.ar    1  LIG1       -0.0196
     22 C          -6.6741   -4.5997   -3.0155 C.ar    1  LIG1        0.1201
     23 C          -7.0446   -5.3018   -4.1509 C.ar    1  LIG1       -0.0196
     24 C          -7.6676   -4.6329   -5.2016 C.ar    1  LIG1       -0.0525
     25 C          -5.9817   -6.5784   -1.8708 C.3     1  LIG1        0.0788
     26 H          -8.7728   -3.1957   -9.6559 H       1  LIG1        0.0803
     27 H          -7.2847   -1.1174   -6.5702 H       1  LIG1        0.0692
     28 H          -4.9830   -3.6628   -9.5327 H       1  LIG1        0.0367
     29 H          -5.8461   -5.2686  -11.0589 H       1  LIG1        0.0272
     30 H          -6.9152   -5.3442   -9.8917 H       1  LIG1        0.0272
     31 H          -7.3664   -4.3688  -12.4276 H       1  LIG1        0.0272
     32 H          -8.4572   -4.5294  -11.2895 H       1  LIG1        0.0272
     33 H          -4.6208   -1.0351  -10.3567 H       1  LIG1        0.0235
     34 H          -5.7406   -0.4127  -11.2895 H       1  LIG1        0.0235
     35 H          -6.0800   -0.7949   -9.7897 H       1  LIG1        0.0235
     36 H          -5.3722   -3.6787  -12.5693 H       1  LIG1        0.0235
     37 H          -5.3049   -2.1433  -12.9522 H       1  LIG1        0.0235
     38 H          -4.1934   -2.7763  -12.0182 H       1  LIG1        0.0235
     39 H          -8.0908   -0.8520  -11.9811 H       1  LIG1        0.0237
     40 H          -7.7814   -1.9216  -13.1072 H       1  LIG1        0.0237
     41 H          -9.1309   -2.0079  -12.2831 H       1  LIG1        0.0237
     42 H          -9.2955   -1.9522   -5.8322 H       1  LIG1        0.0706
     43 H          -7.6096   -1.6124   -3.9879 H       1  LIG1        0.0622
     44 H          -6.5582   -2.7152   -2.1980 H       1  LIG1        0.0654
     45 H          -6.8717   -6.2533   -4.2132 H       1  LIG1        0.0654
     46 H          -7.9356   -5.1319   -5.9899 H       1  LIG1        0.0622
     47 H          -6.8448   -7.0044   -1.9940 H       1  LIG1        0.0660
     48 H          -5.3856   -6.8439   -2.5875 H       1  LIG1        0.0660
     49 H          -5.6061   -6.8518   -1.0188 H       1  LIG1        0.0660
@<TRIPOS>BOND
     1    40    17    1
     2    37    16    1
     3    36    16    1
     4    31    12    1
     5    41    17    1
     6    16    38    1
     7    16    14    1
     8    17    39    1
     9    17    13    1
    10    12    32    1
    11    12    13    1
    12    12    11    1
    13    34    15    1
    14    13    14    1
    15    13     6    1
    16    29    11    1
    17    14    15    1
    18    14    10    1
    19    15    33    1
    20    15    35    1
    21    11    10    1
    22    11    30    1
    23    10    28    1
    24    10     9    1
    25     6    26    1
    26     6     1    1
    27     6     9    1
    28     1     7    1
    29     9     5    2
    30     7     2    2
    31     7     8    1
    32     5     8    1
    33     8    27    1
    34     8    18    1
    35     3    18    1
    36    18    42    1
    37    18    19    1
    38    46    24    1
    39    24    19   ar
    40    24    23   ar
    41    19    20   ar
    42    45    23    1
    43    23    22   ar
    44    20    43    1
    45    20    21   ar
    46    22    21   ar
    47    22     4    1
    48    21    44    1
    49    48    25    1
    50    47    25    1
    51     4    25    1
    52    25    49    1
