@<TRIPOS>MOLECULE
C28 H29 N O7
 65 67 0 0 0
SMALL
GASTEIGER

@<TRIPOS>ATOM
      1 O          -2.3918   -0.0818    8.0242 O.3     1  LIG1       -0.4630
      2 O          -3.9309   -1.5631   12.1294 O.3     1  LIG1       -0.4618
      3 O          -1.7203   -1.3330   11.9616 O.2     1  LIG1       -0.2455
      4 O          -4.1164    1.8456    3.3297 O.3     1  LIG1       -0.4616
      5 O          -4.2373    0.7991    5.3075 O.2     1  LIG1       -0.2452
      6 O          -1.2344    2.6261    8.9609 O.3     1  LIG1       -0.4616
      7 O           0.2270    4.2661    8.5256 O.2     1  LIG1       -0.2452
      8 N          -1.3386    4.4926    4.6697 N.pl3   1  LIG1       -0.2815
      9 C          -2.0096    2.2152    6.3707 C.3     1  LIG1        0.0536
     10 C          -2.6624    2.5349    5.0436 C.2     1  LIG1        0.0629
     11 C          -2.2996    3.5720    4.2894 C.2     1  LIG1        0.0123
     12 C          -0.8249    4.3825    5.9465 C.2     1  LIG1        0.0123
     13 C          -1.1521    3.3947    6.7833 C.2     1  LIG1        0.0629
     14 C          -1.1682    0.9446    6.2650 C.ar    1  LIG1        0.0071
     15 C          -0.1646    0.8463    5.3089 C.ar    1  LIG1       -0.0542
     16 C           0.5958   -0.3000    5.1740 C.ar    1  LIG1       -0.0612
     17 C           0.3595   -1.3808    5.9928 C.ar    1  LIG1       -0.0583
     18 C          -0.6183   -1.3077    6.9494 C.ar    1  LIG1       -0.0191
     19 C          -1.3566   -0.1522    7.0908 C.ar    1  LIG1        0.1316
     20 C          -2.1451   -0.5490    9.2582 C.2     1  LIG1        0.0992
     21 C          -3.1068   -0.8011   10.1136 C.2     1  LIG1        0.0573
     22 C          -2.8138   -1.2396   11.4693 C.2     1  LIG1        0.3349
     23 C          -3.7862   -2.0456   13.4772 C.3     1  LIG1        0.0900
     24 C          -5.1469   -2.4470   13.9394 C.3     1  LIG1       -0.0306
     25 C          -3.7416    1.6362    4.6077 C.2     1  LIG1        0.3373
     26 C          -5.2055    1.0545    2.8123 C.3     1  LIG1        0.0900
     27 C          -4.7164   -0.0614    2.0045 C.3     1  LIG1       -0.0306
     28 C          -0.9499    5.5504    3.7964 C.ar    1  LIG1        0.0376
     29 C          -0.8991    5.3303    2.4301 C.ar    1  LIG1       -0.0400
     30 C          -0.5111    6.3453    1.5806 C.ar    1  LIG1       -0.0600
     31 C          -0.1478    7.5737    2.0796 C.ar    1  LIG1       -0.0616
     32 C          -0.1944    7.7864    3.4283 C.ar    1  LIG1       -0.0600
     33 C          -0.6095    6.7927    4.2946 C.ar    1  LIG1       -0.0400
     34 C          -0.6252    3.4939    8.1548 C.2     1  LIG1        0.3373
     35 C          -0.9298    2.6658   10.3758 C.3     1  LIG1        0.0900
     36 C          -2.1617    2.8831   11.1449 C.3     1  LIG1       -0.0306
     37 H          -2.7082    2.0790    7.0445 H       1  LIG1        0.0452
     38 H          -2.7141    3.6827    3.4643 H       1  LIG1        0.0792
     39 H          -0.2219    5.0277    6.2380 H       1  LIG1        0.0792
     40 H          -0.0010    1.5689    4.7470 H       1  LIG1        0.0622
     41 H           1.2654   -0.3412    4.5301 H       1  LIG1        0.0618
     42 H           0.8626   -2.1576    5.8976 H       1  LIG1        0.0619
     43 H          -0.7845   -2.0369    7.5020 H       1  LIG1        0.0654
     44 H          -1.2644   -0.6985    9.5153 H       1  LIG1        0.1032
     45 H          -3.9922   -0.6979    9.8493 H       1  LIG1        0.0720
     46 H          -1.1278    4.4968    2.0856 H       1  LIG1        0.0636
     47 H          -0.4949    6.1977    0.6619 H       1  LIG1        0.0618
     48 H           0.1262    8.2523    1.5059 H       1  LIG1        0.0618
     49 H           0.0583    8.6140    3.7697 H       1  LIG1        0.0618
     50 H          -0.6605    6.9599    5.2083 H       1  LIG1        0.0636
     51 H          -3.4334   -1.3433   14.0466 H       1  LIG1        0.0695
     52 H          -3.1882   -2.8085   13.4969 H       1  LIG1        0.0695
     53 H          -5.7439   -1.6987   13.8621 H       1  LIG1        0.0262
     54 H          -5.1033   -2.7296   14.8557 H       1  LIG1        0.0262
     55 H          -5.4685   -3.1695   13.3959 H       1  LIG1        0.0262
     56 H          -5.7218    0.7047    3.5553 H       1  LIG1        0.0695
     57 H          -5.7722    1.6185    2.2626 H       1  LIG1        0.0695
     58 H          -3.7571   -0.0426    1.9796 H       1  LIG1        0.0262
     59 H          -5.0618    0.0146    1.1120 H       1  LIG1        0.0262
     60 H          -5.0098   -0.8898    2.3922 H       1  LIG1        0.0262
     61 H          -0.3085    3.3888   10.5512 H       1  LIG1        0.0695
     62 H          -0.5287    1.8235   10.6422 H       1  LIG1        0.0695
     63 H          -2.7694    2.1567   10.9887 H       1  LIG1        0.0262
     64 H          -2.5695    3.7078   10.8691 H       1  LIG1        0.0262
     65 H          -1.9511    2.9287   12.0807 H       1  LIG1        0.0262
@<TRIPOS>BOND
     1    47    30    1
     2    59    27    1
     3    48    31    1
     4    30    31   ar
     5    30    29   ar
     6    58    27    1
     7    27    60    1
     8    27    26    1
     9    31    32   ar
    10    46    29    1
    11    57    26    1
    12    29    28   ar
    13    26     4    1
    14    26    56    1
    15     4    25    1
    16    32    49    1
    17    32    33   ar
    18    38    11    1
    19    28    33   ar
    20    28     8    1
    21    11     8    1
    22    11    10    2
    23    33    50    1
    24    41    16    1
    25    25    10    1
    26    25     5    2
    27     8    12    1
    28    40    15    1
    29    10     9    1
    30    16    15   ar
    31    16    17   ar
    32    15    14   ar
    33    42    17    1
    34    12    39    1
    35    12    13    2
    36    17    18   ar
    37    14     9    1
    38    14    19   ar
    39     9    13    1
    40     9    37    1
    41    13    34    1
    42    18    19   ar
    43    18    43    1
    44    19     1    1
    45     1    20    1
    46    34     7    2
    47    34     6    1
    48     6    35    1
    49    20    44    1
    50    20    21    2
    51    45    21    1
    52    21    22    1
    53    35    61    1
    54    35    62    1
    55    35    36    1
    56    64    36    1
    57    63    36    1
    58    36    65    1
    59    22     3    2
    60    22     2    1
    61     2    23    1
    62    55    24    1
    63    23    52    1
    64    23    24    1
    65    23    51    1
    66    53    24    1
    67    24    54    1
