@<TRIPOS>MOLECULE
?
 46 50 0 0 0
SMALL
GASTEIGER

@<TRIPOS>ATOM
      1 N           8.3136    1.5075    5.8608 N.pl3   1  LIG1        0.0000
      2 N           8.8407    2.7613    5.8458 N.pl3   1  LIG1        0.0000
      3 N          10.3737    0.6733    4.8579 N.pl3   1  LIG1        0.0000
      4 B           8.8637    0.3887    4.8562 B       1  LIG1        0.0000
      5 C           7.2278    1.5506    6.6395 C.2     1  LIG1        0.0000
      6 C           7.0549    2.8395    7.1318 C.2     1  LIG1        0.0000
      7 C           8.0901    3.5801    6.6168 C.3     1  LIG1        0.0000
      8 C          10.0095    3.0469    5.0796 C.ar    1  LIG1        0.0000
      9 C          10.3743    4.3740    4.8574 C.ar    1  LIG1        0.0000
     10 C          11.5151    4.6796    4.1277 C.ar    1  LIG1        0.0000
     11 C          12.2692    3.6222    3.6246 C.ar    1  LIG1        0.0000
     12 C          11.9073    2.3061    3.8353 C.ar    1  LIG1        0.0000
     13 C          10.7649    1.9761    4.5838 C.ar    1  LIG1        0.0000
     14 C          11.9070    6.1077    3.8646 C.3     1  LIG1        0.0000
     15 C           8.1912    0.6828    3.4050 C.ar    1  LIG1        0.0000
     16 C           8.8636    0.3147    2.2277 C.ar    1  LIG1        0.0000
     17 C           8.3233    0.5511    0.9661 C.ar    1  LIG1        0.0000
     18 C           7.0919    1.1729    0.8452 C.ar    1  LIG1        0.0000
     19 C           6.3963    1.5358    1.9808 C.ar    1  LIG1        0.0000
     20 C           6.9461    1.2924    3.2422 C.ar    1  LIG1        0.0000
     21 C           8.5377   -1.0676    5.4645 C.ar    1  LIG1        0.0000
     22 C           9.0177   -1.4436    6.7293 C.ar    1  LIG1        0.0000
     23 C           8.8110   -2.7203    7.2433 C.ar    1  LIG1        0.0000
     24 C           8.1199   -3.6660    6.5020 C.ar    1  LIG1        0.0000
     25 C           7.6174   -3.3166    5.2542 C.ar    1  LIG1        0.0000
     26 C           7.8163   -2.0323    4.7556 C.ar    1  LIG1        0.0000
     27 H          10.8718    0.0619    4.4244 H       1  LIG1        0.0000
     28 H           6.6910    0.7813    6.7893 H       1  LIG1        0.0000
     29 H           6.3723    3.1625    7.6951 H       1  LIG1        0.0000
     30 H           8.3559    4.4823    6.7596 H       1  LIG1        0.0000
     31 H           9.8182    5.0888    5.2272 H       1  LIG1        0.0000
     32 H          13.0543    3.8371    3.0972 H       1  LIG1        0.0000
     33 H          12.4498    1.5998    3.4322 H       1  LIG1        0.0000
     34 H          12.8396    6.2848    4.1302 H       1  LIG1        0.0000
     35 H          11.8126    6.4287    2.9051 H       1  LIG1        0.0000
     36 H          11.3606    6.6917    4.3993 H       1  LIG1        0.0000
     37 H           9.7426   -0.1021    2.2953 H       1  LIG1        0.0000
     38 H           8.8806    0.2522    0.1828 H       1  LIG1        0.0000
     39 H           6.7427    1.3693   -0.0269 H       1  LIG1        0.0000
     40 H           5.5228    1.9944    1.9138 H       1  LIG1        0.0000
     41 H           6.4029    1.5936    4.0244 H       1  LIG1        0.0000
     42 H           9.5113   -0.7813    7.2988 H       1  LIG1        0.0000
     43 H           9.1415   -2.9861    8.1388 H       1  LIG1        0.0000
     44 H           7.9600   -4.5798    6.8422 H       1  LIG1        0.0000
     45 H           7.1585   -4.0104    4.6945 H       1  LIG1        0.0000
     46 H           7.4703   -1.7778    3.8703 H       1  LIG1        0.0000
@<TRIPOS>BOND
     1    39    18    1
     2    38    17    1
     3    18    17   ar
     4    18    19   ar
     5    17    16   ar
     6    40    19    1
     7    19    20   ar
     8    16    37    1
     9    16    15   ar
    10    35    14    1
    11    32    11    1
    12    20    15   ar
    13    20    41    1
    14    15     4    1
    15    33    12    1
    16    11    12   ar
    17    11    10   ar
    18    12    13   ar
    19    14    10    1
    20    14    34    1
    21    14    36    1
    22    46    26    1
    23    10     9   ar
    24    27     3    1
    25    13     3    1
    26    13     8   ar
    27    45    25    1
    28    26    25   ar
    29    26    21   ar
    30     4     3    1
    31     4    21    1
    32     4     1    1
    33     9     8   ar
    34     9    31    1
    35     8     2    1
    36    25    24   ar
    37    21    22   ar
    38     2     1    1
    39     2     7    1
    40     1     5    1
    41    24    44    1
    42    24    23   ar
    43     7    30    1
    44     7     6    1
    45     5    28    1
    46     5     6    2
    47    22    23   ar
    48    22    42    1
    49     6    29    1
    50    23    43    1
