@<TRIPOS>MOLECULE
4024475.cif
 49 52 0 0 0
SMALL
GASTEIGER

@<TRIPOS>ATOM
      1 S           3.0729    6.2506    2.2944 S.3     1  LIG1        0.0172
      2 O           3.0171    5.5658    3.5709 O.3     1  LIG1       -0.1487
      3 N           1.8161    6.3745    1.4204 N.pl3   1  LIG1       -0.1720
      4 C           3.6909    7.8935    2.5599 C.3     1  LIG1        0.0305
      5 H           4.4775    7.8733    3.1600 H       1  LIG1        0.0407
      6 H           3.9611    8.3029    1.6999 H       1  LIG1        0.0407
      7 O           1.6718   10.2086    5.4001 O.2     1  LIG1       -0.2919
      8 C           2.5469    8.6992    3.2019 C.3     1  LIG1        0.0043
      9 H           2.3171    8.2731    4.0757 H       1  LIG1        0.0362
     10 O           4.3231   12.5930    3.5542 O.3     1  LIG1       -0.4944
     11 C           1.3037    8.6668    2.3140 C.ar    1  LIG1       -0.0194
     12 C           0.4173    9.7471    2.2564 C.ar    1  LIG1       -0.0564
     13 H           0.5851   10.5065    2.8033 H       1  LIG1        0.0621
     14 C          -0.7022    9.7507    1.4273 C.ar    1  LIG1       -0.0614
     15 H          -1.2940   10.4941    1.4183 H       1  LIG1        0.0618
     16 C          -0.9407    8.6516    0.6153 C.ar    1  LIG1       -0.0599
     17 H          -1.6925    8.6443    0.0355 H       1  LIG1        0.0618
     18 C          -0.0873    7.5703    0.6504 C.ar    1  LIG1       -0.0378
     19 H          -0.2597    6.8255    0.0855 H       1  LIG1        0.0637
     20 C           1.0310    7.5421    1.5001 C.ar    1  LIG1        0.0655
     21 C           4.2626    5.4207    1.2878 C.ar    1  LIG1        0.0340
     22 C           5.3349    4.7996    1.9121 C.ar    1  LIG1       -0.0462
     23 H           5.4282    4.8231    2.8575 H       1  LIG1        0.0629
     24 C           6.2707    4.1414    1.1188 C.ar    1  LIG1       -0.0607
     25 H           7.0140    3.7107    1.5247 H       1  LIG1        0.0618
     26 C           6.1275    4.1107   -0.2547 C.ar    1  LIG1       -0.0617
     27 H           6.7625    3.6437   -0.7843 H       1  LIG1        0.0618
     28 C           5.0723    4.7514   -0.8596 C.ar    1  LIG1       -0.0607
     29 H           4.9894    4.7337   -1.8063 H       1  LIG1        0.0618
     30 C           4.1275    5.4248   -0.0976 C.ar    1  LIG1       -0.0462
     31 H           3.4036    5.8783   -0.5131 H       1  LIG1        0.0629
     32 C           3.0640   10.1169    3.4814 C.3     1  LIG1        0.0183
     33 H           4.0141   10.0620    3.7544 H       1  LIG1        0.0351
     34 H           3.0216   10.6430    2.6448 H       1  LIG1        0.0351
     35 C           2.2867   10.8453    4.5568 C.2     1  LIG1        0.1673
     36 C           2.2051   12.3366    4.5556 C.ar    1  LIG1        0.0590
     37 C           3.1954   13.1910    4.0218 C.ar    1  LIG1        0.1305
     38 C           2.9925   14.5710    4.0210 C.ar    1  LIG1       -0.0193
     39 H           3.6536   15.1495    3.6585 H       1  LIG1        0.0654
     40 C           1.8194   15.0998    4.5535 C.ar    1  LIG1       -0.0583
     41 H           1.6813   16.0397    4.5429 H       1  LIG1        0.0619
     42 C           0.8545   14.2773    5.0973 C.ar    1  LIG1       -0.0609
     43 H           0.0590   14.6480    5.4606 H       1  LIG1        0.0618
     44 C           1.0537   12.9041    5.1087 C.ar    1  LIG1       -0.0477
     45 H           0.3970   12.3401    5.5003 H       1  LIG1        0.0626
     46 C           5.3543   13.4213    3.0165 C.3     1  LIG1        0.0788
     47 H           5.0290   13.8621    2.2047 H       1  LIG1        0.0660
     48 H           6.1357   12.8702    2.7991 H       1  LIG1        0.0660
     49 H           5.6066   14.0993    3.6773 H       1  LIG1        0.0660
@<TRIPOS>BOND
     1    29    28    1
     2    28    26   ar
     3    28    30   ar
     4    27    26    1
     5    31    30    1
     6    26    24   ar
     7    30    21   ar
     8    17    16    1
     9    19    18    1
    10    16    18   ar
    11    16    14   ar
    12    18    20   ar
    13    24    25    1
    14    24    22   ar
    15    21    22   ar
    16    21     1    1
    17    15    14    1
    18     3    20    1
    19     3     1    1
    20    14    12   ar
    21    20    11   ar
    22     6     4    1
    23    22    23    1
    24    47    46    1
    25    12    11   ar
    26    12    13    1
    27     1     4    1
    28     1     2    1
    29    11     8    1
    30     4     5    1
    31     4     8    1
    32    34    32    1
    33    48    46    1
    34    46    10    1
    35    46    49    1
    36     8    32    1
    37     8     9    1
    38    32    33    1
    39    32    35    1
    40    10    37    1
    41    39    38    1
    42    38    37   ar
    43    38    40   ar
    44    37    36   ar
    45    41    40    1
    46    40    42   ar
    47    36    35    1
    48    36    44   ar
    49    35     7    2
    50    42    44   ar
    51    42    43    1
    52    44    45    1
