@<TRIPOS>MOLECULE
?
 59 61 0 0 0
SMALL
GASTEIGER

@<TRIPOS>ATOM
      1 O         -12.9994   -3.6754   -8.1497 O.3     1  LIG1       -0.1937
      2 O         -11.8989   -4.6084   -8.4406 O.3     1  LIG1       -0.1937
      3 O         -11.6300   -4.8510   -6.1180 O.3     1  LIG1       -0.1937
      4 O         -10.3914   -4.0597   -6.2070 O.3     1  LIG1       -0.1937
      5 O         -11.7462   -2.1384   -6.2898 O.3     1  LIG1       -0.1937
      6 O         -11.4101   -1.9932   -7.7143 O.3     1  LIG1       -0.1937
      7 C         -11.7783   -5.5145   -7.3644 C.3     1  LIG1        0.2349
      8 C         -13.0178   -6.3844   -7.1717 C.3     1  LIG1        0.0069
      9 H         -13.2880   -6.7474   -8.0296 H       1  LIG1        0.0319
     10 H         -13.7449   -5.8347   -6.8389 H       1  LIG1        0.0319
     11 C         -12.7677   -7.5373   -6.1916 C.3     1  LIG1       -0.0480
     12 H         -12.6568   -7.1782   -5.2977 H       1  LIG1        0.0267
     13 H         -13.5412   -8.1236   -6.1839 H       1  LIG1        0.0267
     14 C         -11.5233   -8.3489   -6.5663 C.3     1  LIG1       -0.0527
     15 H         -11.3514   -9.0122   -5.8793 H       1  LIG1        0.0265
     16 H         -11.6806   -8.8160   -7.4021 H       1  LIG1        0.0265
     17 C         -10.3031   -7.4386   -6.7135 C.3     1  LIG1       -0.0480
     18 H         -10.0978   -7.0331   -5.8569 H       1  LIG1        0.0267
     19 H          -9.5367   -7.9672   -6.9866 H       1  LIG1        0.0267
     20 C         -10.5578   -6.3452   -7.7447 C.3     1  LIG1        0.0069
     21 H         -10.7000   -6.7488   -8.6153 H       1  LIG1        0.0319
     22 H          -9.7800   -5.7693   -7.8035 H       1  LIG1        0.0319
     23 C         -10.6382   -2.7722   -5.6709 C.3     1  LIG1        0.2349
     24 C         -11.0112   -2.8010   -4.1950 C.3     1  LIG1        0.0069
     25 H         -10.3845   -3.3680   -3.7189 H       1  LIG1        0.0319
     26 H         -11.8961   -3.1860   -4.0968 H       1  LIG1        0.0319
     27 C         -10.9997   -1.4029   -3.5721 C.3     1  LIG1       -0.0480
     28 H         -11.1289   -1.4800   -2.6137 H       1  LIG1        0.0267
     29 H         -11.7380   -0.8871   -3.9318 H       1  LIG1        0.0267
     30 C          -9.6881   -0.6585   -3.8435 C.3     1  LIG1       -0.0527
     31 H          -9.7570    0.2488   -3.5080 H       1  LIG1        0.0265
     32 H          -8.9637   -1.0990   -3.3726 H       1  LIG1        0.0265
     33 C          -9.3786   -0.6268   -5.3409 C.3     1  LIG1       -0.0480
     34 H         -10.0636   -0.1166   -5.8019 H       1  LIG1        0.0267
     35 H          -8.5273   -0.1848   -5.4851 H       1  LIG1        0.0267
     36 C          -9.3232   -2.0376   -5.9163 C.3     1  LIG1        0.0069
     37 H          -8.5953   -2.5278   -5.5025 H       1  LIG1        0.0319
     38 H          -9.1510   -1.9918   -6.8694 H       1  LIG1        0.0319
     39 C         -12.5332   -2.3731   -8.4868 C.3     1  LIG1        0.2349
     40 C         -13.7431   -1.4750   -8.2490 C.3     1  LIG1        0.0069
     41 H         -13.4666   -0.5459   -8.2944 H       1  LIG1        0.0319
     42 H         -14.0937   -1.6392   -7.3594 H       1  LIG1        0.0319
     43 C         -14.8494   -1.7249   -9.2820 C.3     1  LIG1       -0.0480
     44 H         -15.2376   -2.6003   -9.1276 H       1  LIG1        0.0267
     45 H         -15.5492   -1.0634   -9.1664 H       1  LIG1        0.0267
     46 C         -14.3228   -1.6544  -10.7196 C.3     1  LIG1       -0.0527
     47 H         -15.0298   -1.9008  -11.3360 H       1  LIG1        0.0265
     48 H         -14.0512   -0.7450  -10.9204 H       1  LIG1        0.0265
     49 C         -13.1310   -2.5959  -10.9069 C.3     1  LIG1       -0.0480
     50 H         -13.4220   -3.5130  -10.7818 H       1  LIG1        0.0267
     51 H         -12.7907   -2.5093  -11.8116 H       1  LIG1        0.0267
     52 C         -12.0217   -2.2783   -9.9186 C.3     1  LIG1        0.0069
     53 H         -11.6874   -1.3833  -10.0841 H       1  LIG1        0.0319
     54 H         -11.2896   -2.9017  -10.0423 H       1  LIG1        0.0319
     55 C         -14.6393   -3.5554   -5.1538 C.3     2  LIG2        0.1805
     56 CL        -14.8131   -1.9681   -4.4079 Cl      2  LIG2       -0.0870
     57 CL        -14.4855   -4.8005   -3.9209 Cl      2  LIG2       -0.0870
     58 CL        -16.0179   -3.8939   -6.1931 Cl      2  LIG2       -0.0870
     59 H         -13.8216   -3.4661   -5.6736 H       2  LIG2        0.0806
@<TRIPOS>BOND
     1    51    49    1
     2    47    46    1
     3    48    46    1
     4    49    50    1
     5    49    46    1
     6    49    52    1
     7    46    43    1
     8    53    52    1
     9    54    52    1
    10    52    39    1
    11    43    45    1
    12    43    44    1
    13    43    40    1
    14    21    20    1
    15    39    40    1
    16    39     1    1
    17    39     6    1
    18     2     1    1
    19     2     7    1
    20    41    40    1
    21    40    42    1
    22     9     8    1
    23    22    20    1
    24    20     7    1
    25    20    17    1
    26     6     5    1
    27    16    14    1
    28     7     8    1
    29     7     3    1
    30     8    10    1
    31     8    11    1
    32    19    17    1
    33    38    36    1
    34    17    14    1
    35    17    18    1
    36    14    11    1
    37    14    15    1
    38     5    23    1
    39     4     3    1
    40     4    23    1
    41    58    55    1
    42    11    13    1
    43    11    12    1
    44    36    23    1
    45    36    37    1
    46    36    33    1
    47    34    33    1
    48    59    55    1
    49    23    24    1
    50    35    33    1
    51    33    30    1
    52    55    56    1
    53    55    57    1
    54    24    26    1
    55    24    25    1
    56    24    27    1
    57    29    27    1
    58    30    27    1
    59    30    31    1
    60    30    32    1
    61    27    28    1
