@<TRIPOS>MOLECULE
?
 70 74 0 0 0
SMALL
GASTEIGER

@<TRIPOS>ATOM
      1 C          -1.1817   -2.9568   11.0151 C.3     1  LIG1        0.0422
      2 H          -2.1440   -3.1373   11.0393 H       1  LIG1        0.0493
      3 H          -0.8316   -3.3449   10.1859 H       1  LIG1        0.0493
      4 N          -0.5476   -3.6482   12.1599 N.3     1  LIG1       -0.2254
      5 C          -0.8049   -3.0422   13.4844 C.3     1  LIG1        0.0142
      6 H          -0.3918   -2.1532   13.5184 H       1  LIG1        0.0441
      7 H          -0.3901   -3.5957   14.1797 H       1  LIG1        0.0441
      8 C          -2.2717   -2.9172   13.7645 C.3     1  LIG1       -0.0508
      9 H          -2.6591   -2.2553   13.1711 H       1  LIG1        0.0243
     10 H          -2.4024   -2.6427   14.6859 H       1  LIG1        0.0243
     11 H          -2.7036   -3.7738   13.6181 H       1  LIG1        0.0243
     12 N           0.8402   -3.8452   11.9730 N.pl3   1  LIG1       -0.2812
     13 H           1.0643   -4.6766   12.0073 H       1  LIG1        0.1661
     14 C           1.7847   -2.8962   11.8640 C.2     1  LIG1        0.0236
     15 C           3.1765   -3.4341   12.0062 C.3     1  LIG1       -0.0250
     16 H           3.3829   -3.5524   12.9457 H       1  LIG1        0.0290
     17 H           3.8056   -2.8087   11.6138 H       1  LIG1        0.0290
     18 H           3.2409   -4.2875   11.5510 H       1  LIG1        0.0290
     19 C           1.5268   -1.5598   11.6356 C.2     1  LIG1        0.0012
     20 C           2.4912   -0.4986   11.7241 C.2     1  LIG1       -0.0403
     21 H           3.3983   -0.6088   11.9427 H       1  LIG1        0.0630
     22 C           1.8937    0.6920   11.4433 C.2     1  LIG1        0.0631
     23 C           2.5438    2.0083   11.4862 C.3     1  LIG1        0.4180
     24 C           0.5010    0.4639   11.1223 C.ar    1  LIG1       -0.0053
     25 C          -0.5248    1.3079   10.7054 C.ar    1  LIG1       -0.0535
     26 H          -0.3764    2.2311   10.6089 H       1  LIG1        0.0624
     27 C          -1.7645    0.7646   10.4358 C.ar    1  LIG1       -0.0609
     28 H          -2.4657    1.3248   10.1545 H       1  LIG1        0.0618
     29 C          -1.9899   -0.6036   10.5746 C.ar    1  LIG1       -0.0567
     30 H          -2.8473   -0.9478   10.4002 H       1  LIG1        0.0621
     31 C          -0.9784   -1.4689   10.9651 C.ar    1  LIG1       -0.0234
     32 C           0.2722   -0.9258   11.2586 C.ar    1  LIG1       -0.0043
     33 F           2.3944    2.7340   10.3836 F       1  LIG1       -0.1659
     34 F           2.0285    2.8137   12.4291 F       1  LIG1       -0.1659
     35 F           3.8191    1.9616   11.7358 F       1  LIG1       -0.1659
     36 C           1.1940   -7.4692   10.8964 C.3     2  LIG2        0.0422
     37 H           2.1594   -7.2985   10.9082 H       2  LIG2        0.0493
     38 H           0.8316   -7.0529   10.0861 H       2  LIG2        0.0493
     39 N           0.5876   -6.8093   12.0725 N.3     2  LIG2       -0.2254
     40 C           0.8645   -7.4530   13.3758 C.3     2  LIG2        0.0142
     41 H           0.4723   -8.3518   13.3817 H       2  LIG2        0.0441
     42 H           0.4380   -6.9336   14.0892 H       2  LIG2        0.0441
     43 C           2.3309   -7.5538   13.6499 C.3     2  LIG2       -0.0508
     44 H           2.7412   -8.1495   13.0030 H       2  LIG2        0.0243
     45 H           2.4692   -7.9021   14.5436 H       2  LIG2        0.0243
     46 H           2.7344   -6.6742   13.5794 H       2  LIG2        0.0243
     47 N          -0.8053   -6.5958   11.9255 N.pl3   2  LIG2       -0.2812
     48 H          -1.0181   -5.8008   12.0055 H       2  LIG2        0.1661
     49 C          -1.7531   -7.5232   11.7910 C.2     2  LIG2        0.0236
     50 C          -3.1418   -6.9786   11.9423 C.3     2  LIG2       -0.0250
     51 H          -3.4086   -7.0287   12.8737 H       2  LIG2        0.0290
     52 H          -3.7542   -7.5009   11.4014 H       2  LIG2        0.0290
     53 H          -3.1605   -6.0533   11.6489 H       2  LIG2        0.0290
     54 C          -1.5126   -8.8594   11.5202 C.2     2  LIG2        0.0012
     55 C          -2.4955   -9.9049   11.5719 C.2     2  LIG2       -0.0403
     56 H          -3.4017   -9.7873   11.7949 H       2  LIG2        0.0630
     57 C          -1.9153  -11.0957   11.2475 C.2     2  LIG2        0.0631
     58 C          -2.5932  -12.3983   11.2004 C.3     2  LIG2        0.4180
     59 C          -0.5231  -10.8776   10.9422 C.ar    2  LIG2       -0.0053
     60 C           0.4904  -11.7269   10.4944 C.ar    2  LIG2       -0.0535
     61 H           0.3320  -12.6479   10.3873 H       2  LIG2        0.0624
     62 C           1.7274  -11.1889   10.2119 C.ar    2  LIG2       -0.0609
     63 H           2.4178  -11.7503    9.9107 H       2  LIG2        0.0618
     64 C           1.9699   -9.8191   10.3680 C.ar    2  LIG2       -0.0567
     65 H           2.8234   -9.4777   10.1748 H       2  LIG2        0.0621
     66 C           0.9765   -8.9564   10.8025 C.ar    2  LIG2       -0.0234
     67 C          -0.2751   -9.4935   11.1097 C.ar    2  LIG2       -0.0043
     68 F          -3.8938  -12.3222   11.4448 F       2  LIG2       -0.1659
     69 F          -2.4449  -13.0329   10.0339 F       2  LIG2       -0.1659
     70 F          -2.1031  -13.2823   12.0832 F       2  LIG2       -0.1659
@<TRIPOS>BOND
     1    63    62    1
     2    69    58    1
     3    38    36    1
     4    28    27    1
     5    65    64    1
     6     3     1    1
     7    62    64   ar
     8    62    60   ar
     9    64    66   ar
    10    33    23    1
    11    61    60    1
    12    30    29    1
    13    27    29   ar
    14    27    25   ar
    15    60    59   ar
    16    29    31   ar
    17    26    25    1
    18    25    24   ar
    19    66    36    1
    20    66    67   ar
    21    36    37    1
    22    36    39    1
    23    59    67   ar
    24    59    57    1
    25    31     1    1
    26    31    32   ar
    27     1     2    1
    28     1     4    1
    29    67    54    1
    30    24    32   ar
    31    24    22    1
    32    58    57    1
    33    58    68    1
    34    58    70    1
    35    57    55    2
    36    32    19    1
    37    52    50    1
    38    22    23    1
    39    22    20    2
    40    23    35    1
    41    23    34    1
    42    54    55    1
    43    54    49    2
    44    18    15    1
    45    55    56    1
    46    17    15    1
    47    19    20    1
    48    19    14    2
    49    53    50    1
    50    20    21    1
    51    49    47    1
    52    49    50    1
    53    14    12    1
    54    14    15    1
    55    47    48    1
    56    47    39    1
    57    50    51    1
    58    12    13    1
    59    12     4    1
    60    15    16    1
    61    39    40    1
    62     4     5    1
    63    44    43    1
    64     9     8    1
    65    40    41    1
    66    40    43    1
    67    40    42    1
    68     5     6    1
    69     5     8    1
    70     5     7    1
    71    46    43    1
    72    11     8    1
    73    43    45    1
    74     8    10    1
