@<TRIPOS>MOLECULE
?
 49 52 0 0 0
SMALL
GASTEIGER

@<TRIPOS>ATOM
      1 B           4.1309    2.1763    3.8235 B       1  LIG1        0.0000
      2 N           3.2334    3.4083    4.3162 N.3     1  LIG1        0.0000
      3 C           5.2673    3.0246    3.0559 C.ar    1  LIG1        0.0000
      4 C           6.4057    2.6965    2.3285 C.ar    1  LIG1        0.0000
      5 H           6.6508    1.7866    2.2146 H       1  LIG1        0.0000
      6 C           7.1866    3.7040    1.7636 C.ar    1  LIG1        0.0000
      7 H           7.9486    3.4662    1.2492 H       1  LIG1        0.0000
      8 C           6.8783    5.0382    1.9350 C.ar    1  LIG1        0.0000
      9 H           7.4289    5.7067    1.5465 H       1  LIG1        0.0000
     10 C           5.7631    5.4019    2.6775 C.ar    1  LIG1        0.0000
     11 H           5.5440    6.3168    2.8158 H       1  LIG1        0.0000
     12 C           4.9758    4.3875    3.2163 C.ar    1  LIG1        0.0000
     13 C           3.7468    4.5331    3.9608 C.3     1  LIG1        0.0000
     14 H           3.3570    5.3745    4.1686 H       1  LIG1        0.0000
     15 C           1.9419    3.2706    5.0046 C.3     1  LIG1        0.0000
     16 H           2.0332    2.5837    5.7117 H       1  LIG1        0.0000
     17 H           1.2712    2.9432    4.3556 H       1  LIG1        0.0000
     18 C           1.4179    4.5491    5.6386 C.3     1  LIG1        0.0000
     19 H           2.0830    4.8933    6.2863 H       1  LIG1        0.0000
     20 H           1.2901    5.2365    4.9368 H       1  LIG1        0.0000
     21 C           0.0983    4.3032    6.3517 C.3     1  LIG1        0.0000
     22 H          -0.5387    3.8892    5.7184 H       1  LIG1        0.0000
     23 H           0.2465    3.6623    7.0912 H       1  LIG1        0.0000
     24 C          -0.5155    5.5737    6.9122 C.3     1  LIG1        0.0000
     25 H           0.0913    5.9646    7.5756 H       1  LIG1        0.0000
     26 H          -1.3723    5.3618    7.3384 H       1  LIG1        0.0000
     27 H          -0.6616    6.2151    6.1861 H       1  LIG1        0.0000
     28 C           4.8058    1.3798    5.0885 C.ar    1  LIG1        0.0000
     29 C           4.8072    1.7725    6.4182 C.ar    1  LIG1        0.0000
     30 C           5.4274    1.0664    7.4323 C.ar    1  LIG1        0.0000
     31 C           6.1065   -0.0855    7.1407 C.ar    1  LIG1        0.0000
     32 C           6.1676   -0.5144    5.8353 C.ar    1  LIG1        0.0000
     33 C           5.5306    0.2133    4.8556 C.ar    1  LIG1        0.0000
     34 F           4.1907    2.9182    6.8090 F       1  LIG1        0.0000
     35 F           5.3634    1.4967    8.7109 F       1  LIG1        0.0000
     36 F           6.7124   -0.7862    8.1170 F       1  LIG1        0.0000
     37 F           6.8289   -1.6477    5.5354 F       1  LIG1        0.0000
     38 F           5.6195   -0.2607    3.5814 F       1  LIG1        0.0000
     39 C           3.1856    1.2236    2.8796 C.ar    1  LIG1        0.0000
     40 C           2.5255    0.0821    3.3172 C.ar    1  LIG1        0.0000
     41 C           1.7719   -0.7299    2.4958 C.ar    1  LIG1        0.0000
     42 C           1.6174   -0.4120    1.1691 C.ar    1  LIG1        0.0000
     43 C           2.2108    0.7270    0.6821 C.ar    1  LIG1        0.0000
     44 C           2.9693    1.5083    1.5365 C.ar    1  LIG1        0.0000
     45 F           2.6047   -0.2951    4.6175 F       1  LIG1        0.0000
     46 F           1.1896   -1.8487    2.9815 F       1  LIG1        0.0000
     47 F           0.8923   -1.1998    0.3597 F       1  LIG1        0.0000
     48 F           2.0591    1.0671   -0.6126 F       1  LIG1        0.0000
     49 F           3.5017    2.6221    0.9824 F       1  LIG1        0.0000
@<TRIPOS>BOND
     1    48    43    1
     2    47    42    1
     3    43    42   ar
     4    43    44   ar
     5    49    44    1
     6    42    41   ar
     7     7     6    1
     8    44    39   ar
     9     9     8    1
    10     6     8   ar
    11     6     4   ar
    12     8    10   ar
    13     5     4    1
    14     4     3   ar
    15    41    46    1
    16    41    40   ar
    17    10    11    1
    18    10    12   ar
    19    39    40   ar
    20    39     1    1
    21     3    12   ar
    22     3     1    1
    23    12    13    1
    24    40    45    1
    25    38    33    1
    26     1     2    1
    27     1    28    1
    28    13    14    1
    29    13     2    1
    30     2    15    1
    31    17    15    1
    32    33    28   ar
    33    33    32   ar
    34    20    18    1
    35    15    18    1
    36    15    16    1
    37    28    29   ar
    38    37    32    1
    39    18    19    1
    40    18    21    1
    41    22    21    1
    42    32    31   ar
    43    27    24    1
    44    21    24    1
    45    21    23    1
    46    29    34    1
    47    29    30   ar
    48    24    26    1
    49    24    25    1
    50    31    30   ar
    51    31    36    1
    52    30    35    1
