@<TRIPOS>MOLECULE
?
 58 61 0 0 0
SMALL
GASTEIGER

@<TRIPOS>ATOM
      1 N           7.0519    5.8565   24.3071 N.am    1  LIG1       -0.2640
      2 C           7.4883    4.8070   23.5684 C.2     1  LIG1        0.2573
      3 O           8.3023    3.9693   23.9258 O.2     1  LIG1       -0.2717
      4 C           6.8160    4.8848   22.1775 C.3     1  LIG1        0.1788
      5 O           7.8331    5.1138   21.1961 O.3     1  LIG1       -0.3739
      6 H           8.2009    4.3941   21.0059 H       1  LIG1        0.2113
      7 C           5.9916    6.1357   22.2897 C.ar    1  LIG1        0.0185
      8 C           5.1946    6.7706   21.3768 C.ar    1  LIG1       -0.0118
      9 H           5.0481    6.3919   20.5290 H       1  LIG1        0.0658
     10 C           4.6002    7.9901   21.7190 C.ar    1  LIG1        0.1206
     11 O           3.8203    8.5564   20.7532 O.3     1  LIG1       -0.4951
     12 C           4.8356    8.5501   22.9665 C.ar    1  LIG1       -0.0182
     13 H           4.4508    9.3796   23.1832 H       1  LIG1        0.0655
     14 C           5.6371    7.8962   23.9004 C.ar    1  LIG1       -0.0364
     15 H           5.7946    8.2758   24.7462 H       1  LIG1        0.0637
     16 C           6.1903    6.6880   23.5619 C.ar    1  LIG1        0.0433
     17 C           6.0172    3.5969   21.8133 C.3     1  LIG1        0.0439
     18 H           5.5775    3.7725   20.9437 H       1  LIG1        0.0428
     19 C           6.9607    2.4457   21.5943 C.2     1  LIG1       -0.0770
     20 H           7.3143    2.0262   22.3563 H       1  LIG1        0.0576
     21 C           7.3298    1.9797   20.4232 C.2     1  LIG1       -0.0875
     22 H           6.9360    2.3632   19.6606 H       1  LIG1        0.0569
     23 C           8.3329    0.8817   20.2083 C.3     1  LIG1       -0.0376
     24 H           8.7075    0.6140   21.0733 H       1  LIG1        0.0305
     25 H           9.0666    1.2205   19.6554 H       1  LIG1        0.0305
     26 C           7.7219   -0.3227   19.5391 C.3     1  LIG1       -0.0618
     27 H           7.3857   -0.0712   18.6653 H       1  LIG1        0.0233
     28 H           6.9918   -0.6586   20.0805 H       1  LIG1        0.0233
     29 H           8.3961   -1.0136   19.4403 H       1  LIG1        0.0233
     30 C           7.5982    6.2002   25.6223 C.3     1  LIG1        0.0449
     31 H           8.0214    7.0828   25.5679 H       1  LIG1        0.0518
     32 H           8.2925    5.5501   25.8582 H       1  LIG1        0.0518
     33 C           6.5595    6.2230   26.7172 C.ar    1  LIG1       -0.0297
     34 C           6.5888    7.2442   27.6617 C.ar    1  LIG1       -0.0571
     35 H           7.2309    7.9275   27.5923 H       1  LIG1        0.0621
     36 C           5.6874    7.2594   28.6934 C.ar    1  LIG1       -0.0615
     37 H           5.7113    7.9598   29.3186 H       1  LIG1        0.0618
     38 C           4.7632    6.2790   28.8230 C.ar    1  LIG1       -0.0617
     39 H           4.1550    6.2970   29.5389 H       1  LIG1        0.0618
     40 C           4.7137    5.2474   27.8958 C.ar    1  LIG1       -0.0615
     41 H           4.0753    4.5621   27.9837 H       1  LIG1        0.0618
     42 C           5.6132    5.2341   26.8393 C.ar    1  LIG1       -0.0571
     43 H           5.5757    4.5431   26.2029 H       1  LIG1        0.0621
     44 C           4.9052    3.3056   22.8112 C.ar    1  LIG1       -0.0370
     45 C           3.6063    3.6767   22.5049 C.ar    1  LIG1       -0.0579
     46 H           3.4332    4.1227   21.6954 H       1  LIG1        0.0620
     47 C           2.5611    3.4014   23.3649 C.ar    1  LIG1       -0.0615
     48 H           1.6845    3.6529   23.1391 H       1  LIG1        0.0618
     49 C           2.8121    2.7608   24.5479 C.ar    1  LIG1       -0.0617
     50 H           2.1041    2.5757   25.1376 H       1  LIG1        0.0618
     51 C           4.0964    2.3850   24.8800 C.ar    1  LIG1       -0.0615
     52 H           4.2621    1.9437   25.6923 H       1  LIG1        0.0618
     53 C           5.1470    2.6593   24.0093 C.ar    1  LIG1       -0.0579
     54 H           6.0227    2.4040   24.2356 H       1  LIG1        0.0620
     55 C           3.1272    9.7582   21.0730 C.3     1  LIG1        0.0788
     56 H           3.7684   10.4624   21.2547 H       1  LIG1        0.0660
     57 H           2.5758    9.6140   21.8587 H       1  LIG1        0.0660
     58 H           2.5657   10.0164   20.3268 H       1  LIG1        0.0660
@<TRIPOS>BOND
     1    27    26    1
     2    29    26    1
     3    26    28    1
     4    26    23    1
     5    25    23    1
     6    22    21    1
     7    23    21    1
     8    23    24    1
     9    58    55    1
    10    21    19    2
    11     9     8    1
    12    11    55    1
    13    11    10    1
    14    18    17    1
    15     6     5    1
    16    55    56    1
    17    55    57    1
    18     5     4    1
    19     8    10   ar
    20     8     7   ar
    21    19    17    1
    22    19    20    1
    23    46    45    1
    24    10    12   ar
    25    17     4    1
    26    17    44    1
    27     4     7    1
    28     4     2    1
    29     7    16   ar
    30    45    44   ar
    31    45    47   ar
    32    44    53   ar
    33    12    13    1
    34    12    14   ar
    35    48    47    1
    36    47    49   ar
    37    16    14   ar
    38    16     1    1
    39     2     3    2
    40     2     1   am
    41    14    15    1
    42    53    54    1
    43    53    51   ar
    44     1    30    1
    45    49    51   ar
    46    49    50    1
    47    51    52    1
    48    31    30    1
    49    30    32    1
    50    30    33    1
    51    43    42    1
    52    33    42   ar
    53    33    34   ar
    54    42    40   ar
    55    35    34    1
    56    34    36   ar
    57    40    41    1
    58    40    38   ar
    59    36    38   ar
    60    36    37    1
    61    38    39    1
