@<TRIPOS>MOLECULE
?
 59 61 0 0 0
SMALL
GASTEIGER

@<TRIPOS>ATOM
      1 O           2.1642    3.9579    5.6125 O.3     1  LIG1       -0.3911
      2 H           2.2612    4.7421    5.8970 H       1  LIG1        0.2098
      3 O           3.1515    6.4168    5.2741 O.3     1  LIG1       -0.3877
      4 H           3.4414    7.1446    5.5786 H       1  LIG1        0.2102
      5 O           5.5206    2.0106    7.1548 O.3     1  LIG1       -0.3946
      6 H           6.0440    2.6345    7.3621 H       1  LIG1        0.2094
      7 C           3.2106    3.6576    4.6494 C.3     1  LIG1        0.0658
      8 H           2.9619    2.8036    4.1924 H       1  LIG1        0.0600
      9 C           3.1879    4.7825    3.5808 C.3     1  LIG1        0.0178
     10 H           2.2300    5.0698    3.6036 H       1  LIG1        0.0357
     11 C           3.9127    6.0489    4.0775 C.3     1  LIG1        0.0771
     12 C           5.3558    5.7527    4.5669 C.3     1  LIG1       -0.0081
     13 H           5.6647    6.5981    5.0011 H       1  LIG1        0.0331
     14 C           5.3023    4.7067    5.7032 C.3     1  LIG1       -0.0400
     15 H           6.2303    4.4629    5.9449 H       1  LIG1        0.0273
     16 H           4.8902    5.1314    6.4972 H       1  LIG1        0.0273
     17 C           4.5311    3.4156    5.3916 C.3     1  LIG1        0.0089
     18 H           5.1096    2.8770    4.7785 H       1  LIG1        0.0348
     19 C           4.3015    2.5615    6.6375 C.3     1  LIG1        0.0494
     20 H           3.8745    3.1168    7.3368 H       1  LIG1        0.0561
     21 H           3.6807    1.8232    6.4154 H       1  LIG1        0.0561
     22 C           3.3749    4.4040    2.0799 C.3     1  LIG1       -0.0306
     23 H           2.6990    3.6883    1.9074 H       1  LIG1        0.0308
     24 C           4.7004    3.8774    1.4338 C.3     1  LIG1       -0.0406
     25 H           5.1862    4.6648    1.0537 H       1  LIG1        0.0301
     26 C           5.6622    3.1407    2.3580 C.3     1  LIG1       -0.0499
     27 H           6.1518    2.4707    1.8173 H       1  LIG1        0.0268
     28 H           5.1247    2.6450    3.0260 H       1  LIG1        0.0268
     29 C           6.7005    3.9883    3.1187 C.3     1  LIG1       -0.0494
     30 H           6.8819    3.5310    3.9783 H       1  LIG1        0.0268
     31 H           7.5410    3.9636    2.5949 H       1  LIG1        0.0268
     32 C           6.4021    5.4650    3.4388 C.3     1  LIG1       -0.0332
     33 H           6.0213    5.8575    2.6006 H       1  LIG1        0.0307
     34 C           7.7253    6.2395    3.7137 C.3     1  LIG1       -0.0435
     35 H           7.4748    7.1997    3.8403 H       1  LIG1        0.0298
     36 C           8.4780    5.8111    4.9751 C.3     1  LIG1       -0.0624
     37 H           8.7231    4.8653    4.9025 H       1  LIG1        0.0232
     38 H           7.9032    5.9414    5.7590 H       1  LIG1        0.0232
     39 H           9.2887    6.3530    5.0715 H       1  LIG1        0.0232
     40 C           8.6834    6.1900    2.5163 C.3     1  LIG1       -0.0624
     41 H           9.0721    5.2926    2.4456 H       1  LIG1        0.0232
     42 H           9.3993    6.8471    2.6428 H       1  LIG1        0.0232
     43 H           8.1907    6.3988    1.6961 H       1  LIG1        0.0232
     44 C           2.8968    5.6137    1.2597 C.3     1  LIG1       -0.0492
     45 H           2.9837    5.4132    0.2930 H       1  LIG1        0.0268
     46 H           1.9415    5.7867    1.4510 H       1  LIG1        0.0268
     47 C           3.7207    6.8614    1.5992 C.3     1  LIG1       -0.0476
     48 H           4.6585    6.7121    1.3214 H       1  LIG1        0.0269
     49 H           3.3705    7.6283    1.0791 H       1  LIG1        0.0269
     50 C           3.6965    7.2146    3.0770 C.3     1  LIG1       -0.0143
     51 H           2.7605    7.5234    3.2486 H       1  LIG1        0.0326
     52 C           4.5625    8.4420    3.3540 C.3     1  LIG1       -0.0598
     53 H           5.4917    8.2482    3.1077 H       1  LIG1        0.0233
     54 H           4.5167    8.6663    4.3080 H       1  LIG1        0.0233
     55 H           4.2358    9.1985    2.8231 H       1  LIG1        0.0233
     56 C           4.3154    2.9594    0.2685 C.3     1  LIG1       -0.0622
     57 H           5.1172    2.7341   -0.2479 H       1  LIG1        0.0233
     58 H           3.6712    3.4183   -0.3099 H       1  LIG1        0.0233
     59 H           3.9114    2.1378    0.6199 H       1  LIG1        0.0233
@<TRIPOS>BOND
     1    58    56    1
     2    57    56    1
     3    56    59    1
     4    56    24    1
     5    45    44    1
     6    25    24    1
     7    49    47    1
     8    44    46    1
     9    44    47    1
    10    44    22    1
    11    48    47    1
    12    24    22    1
    13    24    26    1
    14    47    50    1
    15    43    40    1
    16    27    26    1
    17    23    22    1
    18    22     9    1
    19    26    28    1
    20    26    29    1
    21    41    40    1
    22    40    42    1
    23    40    34    1
    24    31    29    1
    25    33    32    1
    26    55    52    1
    27    50    51    1
    28    50    52    1
    29    50    11    1
    30    53    52    1
    31    29    32    1
    32    29    30    1
    33    52    54    1
    34    32    34    1
    35    32    12    1
    36     9    10    1
    37     9    11    1
    38     9     7    1
    39    34    35    1
    40    34    36    1
    41    11    12    1
    42    11     3    1
    43     8     7    1
    44    12    13    1
    45    12    14    1
    46     7    17    1
    47     7     1    1
    48    18    17    1
    49    37    36    1
    50    36    39    1
    51    36    38    1
    52     3     4    1
    53    17    14    1
    54    17    19    1
    55     1     2    1
    56    14    15    1
    57    14    16    1
    58    21    19    1
    59    19     5    1
    60    19    20    1
    61     5     6    1
