@<TRIPOS>MOLECULE
?
 102 106 0 0 0
SMALL
GASTEIGER

@<TRIPOS>ATOM
      1 S           3.4907    2.1104    9.5211 S.O2    1  LIG1        0.0768
      2 N           3.0559    3.1663    8.2979 N.am    1  LIG1       -0.1715
      3 O           5.0162    2.7334    7.2608 O.2     1  LIG1       -0.2737
      4 O           2.4375    2.2132   10.4786 O.2     1  LIG1       -0.1497
      5 O           3.7900    0.8305    8.9568 O.2     1  LIG1       -0.1497
      6 C           1.8652    4.0493    8.5031 C.3     1  LIG1        0.0377
      7 H           1.8956    4.7549    7.8380 H       1  LIG1        0.0483
      8 H           1.9502    4.4697    9.3709 H       1  LIG1        0.0483
      9 C           0.4942    3.3910    8.4285 C.3     1  LIG1       -0.0351
     10 H           0.4443    2.7219    9.1310 H       1  LIG1        0.0281
     11 H          -0.1730    4.0658    8.6289 H       1  LIG1        0.0281
     12 C           0.1029    2.7214    7.1115 C.3     1  LIG1       -0.0481
     13 H          -0.8652    2.6889    7.0515 H       1  LIG1        0.0269
     14 H           0.4256    3.2650    6.3761 H       1  LIG1        0.0269
     15 C           0.6469    1.3285    6.9618 C.3     1  LIG1       -0.0338
     16 H           1.6150    1.3667    6.9938 H       1  LIG1        0.0308
     17 H           0.3476    0.7946    7.7136 H       1  LIG1        0.0308
     18 C           0.2292    0.6423    5.6821 C.2     1  LIG1       -0.0758
     19 H          -0.5846    0.1917    5.6652 H       1  LIG1        0.0578
     20 C           0.9696    0.6508    4.5802 C.2     1  LIG1       -0.0151
     21 H           0.6719    0.1546    3.8523 H       1  LIG1        0.0709
     22 C           2.2012    1.3769    4.4371 C.1     1  LIG1       -0.0691
     23 C           3.1724    2.0226    4.3051 C.1     1  LIG1       -0.0613
     24 C           4.2711    2.9398    4.0803 C.ar    1  LIG1        0.0289
     25 C           5.1116    2.7528    2.9690 C.ar    1  LIG1       -0.0460
     26 H           5.0197    1.9924    2.4394 H       1  LIG1        0.0630
     27 C           6.0688    3.6871    2.6580 C.ar    1  LIG1       -0.0606
     28 H           6.6113    3.5684    1.9106 H       1  LIG1        0.0618
     29 C           6.2262    4.8011    3.4547 C.ar    1  LIG1       -0.0614
     30 H           6.8794    5.4313    3.2481 H       1  LIG1        0.0618
     31 C           5.4156    4.9824    4.5597 C.ar    1  LIG1       -0.0570
     32 H           5.5232    5.7428    5.0831 H       1  LIG1        0.0621
     33 C           4.4452    4.0544    4.8992 C.ar    1  LIG1       -0.0232
     34 C           3.5789    4.2501    6.1064 C.3     1  LIG1        0.0519
     35 H           3.6509    5.1701    6.4028 H       1  LIG1        0.0408
     36 H           2.6532    4.0863    5.8652 H       1  LIG1        0.0408
     37 C           3.9674    3.3271    7.2435 C.2     1  LIG1        0.2389
     38 C           4.9456    2.7596   10.2618 C.ar    1  LIG1        0.1088
     39 C           6.1047    2.0409   10.2214 C.ar    1  LIG1       -0.0348
     40 H           6.1499    1.2543    9.7264 H       1  LIG1        0.0637
     41 C           7.2146    2.4864   10.9163 C.ar    1  LIG1       -0.0570
     42 H           8.0003    1.9896   10.8950 H       1  LIG1        0.0621
     43 C           7.1709    3.6654   11.6494 C.ar    1  LIG1       -0.0503
     44 C           6.0002    4.3790   11.6543 C.ar    1  LIG1       -0.0570
     45 H           5.9628    5.1804   12.1258 H       1  LIG1        0.0621
     46 C           4.8731    3.9426   10.9798 C.ar    1  LIG1       -0.0348
     47 H           4.0828    4.4331   11.0105 H       1  LIG1        0.0637
     48 C           8.3838    4.1394   12.4346 C.3     1  LIG1       -0.0397
     49 H           8.1795    4.9699   12.8678 H       1  LIG1        0.0278
     50 H           9.1242    4.2655   11.8370 H       1  LIG1        0.0278
     51 H           8.6160    3.4812   13.0944 H       1  LIG1        0.0278
     52 S           0.6356    3.5425   16.6658 S.O2    2  LIG2        0.0768
     53 N           1.0784    2.4681   17.8696 N.am    2  LIG2       -0.1715
     54 O          -0.8696    2.8765   18.9320 O.2     2  LIG2       -0.2737
     55 O           1.6810    3.4435   15.6928 O.2     2  LIG2       -0.1497
     56 O           0.3612    4.8028   17.2573 O.2     2  LIG2       -0.1497
     57 C           2.2698    1.5954   17.6430 C.3     2  LIG2        0.0377
     58 H           2.1793    1.1893   16.7690 H       2  LIG2        0.0483
     59 H           2.2433    0.8784   18.2975 H       2  LIG2        0.0483
     60 C           3.6463    2.2485   17.7194 C.3     2  LIG2       -0.0351
     61 H           3.6977    2.9130   17.0134 H       2  LIG2        0.0281
     62 H           4.3088    1.5686   17.5199 H       2  LIG2        0.0281
     63 C           4.0516    2.9193   19.0187 C.3     2  LIG2       -0.0481
     64 H           3.7445    2.3763   19.7638 H       2  LIG2        0.0269
     65 H           5.0197    2.9615   19.0618 H       2  LIG2        0.0269
     66 C           3.4997    4.2974   19.1680 C.3     2  LIG2       -0.0338
     67 H           2.5317    4.2518   19.1373 H       2  LIG2        0.0308
     68 H           3.7928    4.8347   18.4130 H       2  LIG2        0.0308
     69 C           3.9191    4.9864   20.4543 C.2     2  LIG2       -0.0758
     70 H           4.7281    5.4473   20.4614 H       2  LIG2        0.0578
     71 C           3.2098    4.9716   21.5607 C.2     2  LIG2       -0.0151
     72 H           3.5075    5.4844   22.2787 H       2  LIG2        0.0709
     73 C           2.0172    4.2204   21.7282 C.1     2  LIG2       -0.0691
     74 C           1.0367    3.5399   21.8975 C.1     2  LIG2       -0.0613
     75 C          -0.0510    2.6392   22.1236 C.ar    2  LIG2        0.0289
     76 C          -0.8886    2.7972   23.2362 C.ar    2  LIG2       -0.0460
     77 H          -0.7826    3.5388   23.7850 H       2  LIG2        0.0630
     78 C          -1.8613    1.8766   23.5259 C.ar    2  LIG2       -0.0606
     79 H          -2.4116    2.0032   24.2649 H       2  LIG2        0.0618
     80 C          -2.0281    0.7683   22.7333 C.ar    2  LIG2       -0.0614
     81 H          -2.6673    0.1295   22.9496 H       2  LIG2        0.0618
     82 C          -1.2300    0.6052   21.5935 C.ar    2  LIG2       -0.0570
     83 H          -1.3578   -0.1340   21.0435 H       2  LIG2        0.0621
     84 C          -0.2560    1.5332   21.2776 C.ar    2  LIG2       -0.0232
     85 C           0.5960    1.3473   20.0397 C.3     2  LIG2        0.0519
     86 H           0.5113    0.4335   19.7283 H       2  LIG2        0.0408
     87 H           1.5262    1.5007   20.2659 H       2  LIG2        0.0408
     88 C           0.1855    2.2993   18.9302 C.2     2  LIG2        0.2389
     89 C          -0.8390    2.9204   15.9257 C.ar    2  LIG2        0.1088
     90 C          -0.7810    1.7357   15.2067 C.ar    2  LIG2       -0.0348
     91 H          -0.0016    1.2275   15.1961 H       2  LIG2        0.0637
     92 C          -1.8925    1.3239   14.5105 C.ar    2  LIG2       -0.0570
     93 H          -1.8582    0.5310   14.0275 H       2  LIG2        0.0621
     94 C          -3.0679    2.0723   14.5171 C.ar    2  LIG2       -0.0503
     95 C          -3.0944    3.2239   15.2423 C.ar    2  LIG2       -0.0570
     96 H          -3.8723    3.7327   15.2583 H       2  LIG2        0.0621
     97 C          -1.9892    3.6574   15.9590 C.ar    2  LIG2       -0.0348
     98 H          -2.0312    4.4417   16.4580 H       2  LIG2        0.0637
     99 C          -4.2698    1.6057   13.7489 C.3     2  LIG2       -0.0397
    100 H          -4.9854    2.2360   13.8587 H       2  LIG2        0.0278
    101 H          -4.5458    0.7467   14.0764 H       2  LIG2        0.0278
    102 H          -4.0469    1.5367   12.8189 H       2  LIG2        0.0278
@<TRIPOS>BOND
     1    28    27    1
     2    26    25    1
     3    27    25   ar
     4    27    29   ar
     5    25    24   ar
     6    30    29    1
     7    29    31   ar
     8    21    20    1
     9    24    23    1
    10    24    33   ar
    11    23    22    3
    12    22    20    1
    13    31    33   ar
    14    31    32    1
    15    20    18    2
    16    33    34    1
    17    19    18    1
    18    18    15    1
    19    36    34    1
    20    34    35    1
    21    34    37    1
    22    14    12    1
    23    15    16    1
    24    15    12    1
    25    15    17    1
    26    13    12    1
    27    12     9    1
    28    37     3    2
    29    37     2   am
    30     7     6    1
    31     2     6    1
    32     2     1    1
    33     9     6    1
    34     9    11    1
    35     9    10    1
    36     6     8    1
    37     5     1    2
    38     1    38    1
    39     1     4    2
    40    40    39    1
    41    39    38   ar
    42    39    41   ar
    43    38    46   ar
    44    42    41    1
    45    41    43   ar
    46    46    47    1
    47    46    44   ar
    48    43    44   ar
    49    43    48    1
    50    44    45    1
    51    50    48    1
    52    48    49    1
    53    48    51    1
    54   102    99    1
    55    99   100    1
    56    99   101    1
    57    99    94    1
    58    93    92    1
    59    92    94   ar
    60    92    90   ar
    61    94    95   ar
    62    91    90    1
    63    90    89   ar
    64    95    96    1
    65    95    97   ar
    66    55    52    2
    67    89    97   ar
    68    89    52    1
    69    97    98    1
    70    52    56    2
    71    52    53    1
    72    58    57    1
    73    61    60    1
    74    62    60    1
    75    57    60    1
    76    57    53    1
    77    57    59    1
    78    60    63    1
    79    53    88   am
    80    68    66    1
    81    88    54    2
    82    88    85    1
    83    63    65    1
    84    63    66    1
    85    63    64    1
    86    67    66    1
    87    66    69    1
    88    86    85    1
    89    85    87    1
    90    85    84    1
    91    69    70    1
    92    69    71    2
    93    83    82    1
    94    84    82   ar
    95    84    75   ar
    96    71    73    1
    97    71    72    1
    98    82    80   ar
    99    73    74    3
   100    74    75    1
   101    75    76   ar
   102    80    81    1
   103    80    78   ar
   104    76    78   ar
   105    76    77    1
   106    78    79    1
