@<TRIPOS>MOLECULE
2,4,2',3'-Tetrabromo-[3,4']bipyridinyl
 20 21 0 0 0
SMALL
GASTEIGER

@<TRIPOS>ATOM
      1 BR          3.6689    3.6115    5.0043 Br      1  LIG1       -0.0495
      2 BR          2.0569   -1.9548    3.8706 Br      1  LIG1       -0.0275
      3 BR          4.7019    0.0585    3.4333 Br      1  LIG1       -0.0469
      4 BR          3.9350    1.8289   -0.3941 Br      1  LIG1       -0.0280
      5 N           0.6148    0.1293    2.8407 N.ar    1  LIG1       -0.2471
      6 C           1.8428   -0.2110    3.1621 C.ar    1  LIG1        0.1207
      7 N           5.4858    3.7886    0.7161 N.ar    1  LIG1       -0.2476
      8 C           5.3843    4.6007    2.9751 C.ar    1  LIG1       -0.0289
      9 H           5.7108    5.1957    3.6397 H       1  LIG1        0.0644
     10 C           2.9597    0.6216    3.0138 C.ar    1  LIG1        0.0580
     11 C           0.4288    1.3581    2.3338 C.ar    1  LIG1        0.0295
     12 H          -0.4529    1.6141    2.0873 H       1  LIG1        0.0830
     13 C           1.4526    2.2742    2.1495 C.ar    1  LIG1       -0.0346
     14 H           1.2742    3.1385    1.7967 H       1  LIG1        0.0639
     15 C           2.7543    1.8980    2.4953 C.ar    1  LIG1        0.0037
     16 C           3.8794    2.8477    2.2690 C.ar    1  LIG1        0.0296
     17 C           4.5028    2.9605    1.0205 C.ar    1  LIG1        0.1150
     18 C           5.9072    4.6059    1.6935 C.ar    1  LIG1        0.0299
     19 H           6.6032    5.2211    1.4955 H       1  LIG1        0.0830
     20 C           4.3660    3.6983    3.2574 C.ar    1  LIG1        0.0296
@<TRIPOS>BOND
     1     4    17    1
     2     7    17   ar
     3     7    18   ar
     4    17    16   ar
     5    19    18    1
     6    18     8   ar
     7    14    13    1
     8    12    11    1
     9    13    11   ar
    10    13    15   ar
    11    16    15    1
    12    16    20   ar
    13    11     5   ar
    14    15    10   ar
    15     5     6   ar
    16     8    20   ar
    17     8     9    1
    18    10     6   ar
    19    10     3    1
    20     6     2    1
    21    20     1    1
