@<TRIPOS>MOLECULE
?
 47 47 0 0 0
SMALL
GASTEIGER

@<TRIPOS>ATOM
      1 BR          3.1533   -1.4982   10.1061 Br      1  LIG1       -0.0503
      2 P          -3.2646    0.2612   12.3970 P.3     1  LIG1        0.2688
      3 O          -1.8278    2.4851   12.2880 O.3     1  LIG1       -0.3736
      4 H          -2.3638    2.9698   12.7167 H       1  LIG1        0.2114
      5 O          -4.0604   -1.4555   15.6555 O.3     2  HOH2       -0.4105
      6 H          -3.8958   -1.4734   14.8324 H       0  HOH0        0.2052
      7 H          -4.1014   -2.2649   15.8798 H       0  HOH0        0.2052
      8 O          -3.3210   -1.1354   12.9164 O.2     1  LIG1       -0.2825
      9 O           0.4319    2.3458   14.3983 O.2     1  LIG1       -0.2976
     10 O          -4.3276    1.2388   13.0460 O.3     1  LIG1       -0.3226
     11 C          -1.7275    1.1874   12.8491 C.3     1  LIG1        0.1769
     12 C          -1.6790    1.2186   14.3822 C.3     1  LIG1        0.0480
     13 H          -2.5170    1.6346   14.7066 H       1  LIG1        0.0378
     14 H          -1.6708    0.2837   14.7082 H       1  LIG1        0.0378
     15 C          -0.5218    1.9437   15.0229 C.2     1  LIG1        0.1339
     16 C          -0.6424    2.1297   16.5124 C.3     1  LIG1       -0.0059
     17 H          -0.4824    1.2740   16.9626 H       1  LIG1        0.0306
     18 H          -1.5425    2.4498   16.7303 H       1  LIG1        0.0306
     19 H           0.0202    2.7861   16.8142 H       1  LIG1        0.0306
     20 C          -0.5124    0.5223   12.1987 C.ar    1  LIG1       -0.0060
     21 C           0.1186    1.1296   11.1223 C.ar    1  LIG1       -0.0543
     22 H          -0.2073    1.9628   10.8012 H       1  LIG1        0.0622
     23 C           1.2187    0.5431   10.5042 C.ar    1  LIG1       -0.0474
     24 H           1.6549    0.9730    9.7780 H       1  LIG1        0.0629
     25 C           1.6624   -0.6766   10.9706 C.ar    1  LIG1        0.0179
     26 C           1.0584   -1.3087   12.0293 C.ar    1  LIG1       -0.0474
     27 H           1.3800   -2.1482   12.3359 H       1  LIG1        0.0629
     28 C          -0.0252   -0.7055   12.6425 C.ar    1  LIG1       -0.0543
     29 H          -0.4436   -1.1359   13.3784 H       1  LIG1        0.0622
     30 C          -3.5174    0.3785   10.6414 C.ar    1  LIG1        0.0397
     31 C          -3.1361   -0.6650    9.7925 C.ar    1  LIG1       -0.0491
     32 H          -2.7027   -1.4335   10.1443 H       1  LIG1        0.0625
     33 C          -3.3975   -0.5691    8.4208 C.ar    1  LIG1       -0.0610
     34 H          -3.1462   -1.2792    7.8415 H       1  LIG1        0.0618
     35 C          -4.0128    0.5397    7.9092 C.ar    1  LIG1       -0.0617
     36 H          -4.1924    0.5888    6.9765 H       1  LIG1        0.0618
     37 C          -4.3747    1.5895    8.7307 C.ar    1  LIG1       -0.0610
     38 H          -4.7906    2.3603    8.3627 H       1  LIG1        0.0618
     39 C          -4.1328    1.5196   10.0959 C.ar    1  LIG1       -0.0491
     40 H          -4.3834    2.2407   10.6608 H       1  LIG1        0.0625
     41 C          -5.7567    0.9256   13.0088 C.3     1  LIG1        0.0525
     42 H          -5.9382    0.0942   13.5156 H       1  LIG1        0.0561
     43 H          -6.0545    0.7950   12.0744 H       1  LIG1        0.0561
     44 C          -6.4800    2.0621   13.6205 C.3     1  LIG1       -0.0411
     45 H          -7.4425    1.8819   13.6059 H       1  LIG1        0.0252
     46 H          -6.2930    2.8791   13.1121 H       1  LIG1        0.0252
     47 H          -6.1820    2.1788   14.5468 H       1  LIG1        0.0252
@<TRIPOS>BOND
     1    36    35    1
     2    34    33    1
     3    35    33   ar
     4    35    37   ar
     5    38    37    1
     6    33    31   ar
     7    37    39   ar
     8    24    23    1
     9    31    32    1
    10    31    30   ar
    11    39    30   ar
    12    39    40    1
    13     1    25    1
    14    23    25   ar
    15    23    21   ar
    16    30     2    1
    17    22    21    1
    18    25    26   ar
    19    21    20   ar
    20    26    27    1
    21    26    28   ar
    22    43    41    1
    23    20    28   ar
    24    20    11    1
    25     3     4    1
    26     3    11    1
    27     2    11    1
    28     2     8    2
    29     2    10    1
    30    28    29    1
    31    11    12    1
    32    41    10    1
    33    41    42    1
    34    41    44    1
    35    46    44    1
    36    45    44    1
    37    44    47    1
    38    12    13    1
    39    12    14    1
    40    12    15    1
    41     9    15    2
    42     6     5    1
    43    15    16    1
    44     5     7    1
    45    16    18    1
    46    16    19    1
    47    16    17    1
