@<TRIPOS>MOLECULE
?
 95 98 0 0 0
SMALL
GASTEIGER

@<TRIPOS>ATOM
      1 S           7.4384    3.4874    7.6019 S.2     1  LIG1       -0.0334
      2 S          14.0476    6.2409    4.5939 S.2     1  LIG1       -0.0334
      3 S          13.9614   14.6736    9.0032 S.2     1  LIG1       -0.0334
      4 S          11.5459   10.0114   14.8146 S.2     1  LIG1       -0.0334
      5 S          13.0506    5.9245   14.6277 S.2     1  LIG1       -0.0334
      6 S          17.1548   11.9234   11.7050 S.2     1  LIG1       -0.0334
      7 N          10.3948    6.6864   10.7224 N.3     1  LIG1       -0.2979
      8 C           8.9377    6.4804   10.6559 C.3     1  LIG1        0.0145
      9 H           8.5199    7.2720   10.2328 H       1  LIG1        0.0442
     10 H           8.5798    6.4056   11.5764 H       1  LIG1        0.0442
     11 C           8.5542    5.2405    9.8732 C.3     1  LIG1        0.0224
     12 H           8.8530    4.4337   10.3639 H       1  LIG1        0.0474
     13 H           7.5697    5.1975    9.7845 H       1  LIG1        0.0474
     14 N           9.1587    5.2560    8.5540 N.am    1  LIG1       -0.3352
     15 H           9.8236    5.8153    8.4147 H       1  LIG1        0.1467
     16 C           8.7761    4.4840    7.5445 C.2     1  LIG1        0.0979
     17 C           9.6570    4.5254    6.3374 C.ar    1  LIG1        0.0927
     18 N          10.6394    5.4347    6.3484 N.ar    1  LIG1       -0.2431
     19 C           9.4636    3.6356    5.2795 C.ar    1  LIG1       -0.0339
     20 H           8.7525    3.0058    5.2999 H       1  LIG1        0.0639
     21 C          10.3287    3.6897    4.2002 C.ar    1  LIG1       -0.0576
     22 H          10.2133    3.1033    3.4624 H       1  LIG1        0.0619
     23 C          11.3647    4.6074    4.2086 C.ar    1  LIG1       -0.0339
     24 H          11.9728    4.6621    3.4818 H       1  LIG1        0.0639
     25 C          11.4914    5.4500    5.3134 C.ar    1  LIG1        0.0927
     26 C          12.5938    6.4491    5.3780 C.2     1  LIG1        0.0979
     27 N          12.3218    7.5062    6.1284 N.am    1  LIG1       -0.3352
     28 H          11.5306    7.5441    6.5111 H       1  LIG1        0.1467
     29 C          13.2346    8.6028    6.3629 C.3     1  LIG1        0.0224
     30 H          13.2185    9.2266    5.5937 H       1  LIG1        0.0474
     31 H          14.1567    8.2579    6.4642 H       1  LIG1        0.0474
     32 C          12.8071    9.3367    7.6403 C.3     1  LIG1        0.0145
     33 H          11.8717    9.6408    7.5319 H       1  LIG1        0.0442
     34 H          12.8275    8.6954    8.3940 H       1  LIG1        0.0442
     35 N          13.6273   10.4830    7.9871 N.3     1  LIG1       -0.2979
     36 C          13.4063   11.6823    7.1721 C.3     1  LIG1        0.0145
     37 H          13.2911   11.4158    6.2255 H       1  LIG1        0.0442
     38 H          14.2052   12.2652    7.2284 H       1  LIG1        0.0442
     39 C          12.1783   12.4702    7.6246 C.3     1  LIG1        0.0224
     40 H          12.1576   13.3478    7.1677 H       1  LIG1        0.0474
     41 H          11.3562   11.9742    7.3787 H       1  LIG1        0.0474
     42 N          12.2186   12.6687    9.0649 N.am    1  LIG1       -0.3352
     43 H          11.6592   12.1934    9.5500 H       1  LIG1        0.1467
     44 C          13.0170   13.4974    9.7109 C.2     1  LIG1        0.0979
     45 C          13.0126   13.2506   11.2091 C.ar    1  LIG1        0.0927
     46 N          12.2943   12.2093   11.6152 N.ar    1  LIG1       -0.2431
     47 C          13.7487   14.0345   12.0855 C.ar    1  LIG1       -0.0339
     48 H          14.2866   14.7486   11.7654 H       1  LIG1        0.0639
     49 C          13.6808   13.7509   13.4387 C.ar    1  LIG1       -0.0576
     50 H          14.1515   14.2871   14.0664 H       1  LIG1        0.0619
     51 C          12.9232   12.6817   13.8692 C.ar    1  LIG1       -0.0339
     52 H          12.8524   12.4800   14.7947 H       1  LIG1        0.0639
     53 C          12.2608   11.8987   12.9203 C.ar    1  LIG1        0.0927
     54 C          11.5294   10.6420   13.2769 C.2     1  LIG1        0.0979
     55 N          10.9171   10.0834   12.2438 N.am    1  LIG1       -0.3352
     56 H          10.8652   10.5640   11.5088 H       1  LIG1        0.1467
     57 C          10.3234    8.7608   12.2013 C.3     1  LIG1        0.0224
     58 H           9.3377    8.8280   12.2551 H       1  LIG1        0.0474
     59 H          10.6426    8.2200   12.9669 H       1  LIG1        0.0474
     60 C          10.7366    8.0958   10.8768 C.3     1  LIG1        0.0145
     61 H          10.3162    8.5985   10.1349 H       1  LIG1        0.0442
     62 H          11.7171    8.1886   10.7777 H       1  LIG1        0.0442
     63 C          10.9837    5.8098   11.7460 C.3     1  LIG1        0.0145
     64 H          10.5614    4.9169   11.6840 H       1  LIG1        0.0442
     65 H          10.7768    6.1785   12.6414 H       1  LIG1        0.0442
     66 C          12.5015    5.6510   11.6156 C.3     1  LIG1        0.0224
     67 H          12.7727    4.8268   12.0937 H       1  LIG1        0.0474
     68 H          12.7237    5.5265   10.6591 H       1  LIG1        0.0474
     69 N          13.2865    6.7662   12.1330 N.am    1  LIG1       -0.3352
     70 H          13.5807    7.3647   11.5599 H       1  LIG1        0.1467
     71 C          13.5837    6.9321   13.4184 C.2     1  LIG1        0.0979
     72 C          14.4600    8.1244   13.6855 C.ar    1  LIG1        0.0927
     73 N          14.7721    8.8943   12.6337 N.ar    1  LIG1       -0.2431
     74 C          14.9187    8.3887   14.9779 C.ar    1  LIG1       -0.0339
     75 H          14.6835    7.8206   15.7024 H       1  LIG1        0.0639
     76 C          15.7204    9.4916   15.1764 C.ar    1  LIG1       -0.0576
     77 H          16.0429    9.6980   16.0459 H       1  LIG1        0.0619
     78 C          16.0502   10.2926   14.1100 C.ar    1  LIG1       -0.0339
     79 H          16.5972   11.0599   14.2333 H       1  LIG1        0.0639
     80 C          15.5667    9.9617   12.8374 C.ar    1  LIG1        0.0927
     81 C          15.9648   10.7568   11.6413 C.2     1  LIG1        0.0979
     82 N          15.3443   10.4433   10.5061 N.am    1  LIG1       -0.3352
     83 H          14.6763    9.8724   10.5460 H       1  LIG1        0.1467
     84 C          15.7009   10.9827    9.2076 C.3     1  LIG1        0.0224
     85 H          16.6849   10.9648    9.1003 H       1  LIG1        0.0474
     86 H          15.4023   11.9251    9.1472 H       1  LIG1        0.0474
     87 C          15.0550   10.1751    8.1027 C.3     1  LIG1        0.0145
     88 H          15.5050   10.3733    7.2435 H       1  LIG1        0.0442
     89 H          15.1680    9.2090    8.2919 H       1  LIG1        0.0442
     90 N           9.3872   11.4972    9.8724 N.1     1  LIG1       -0.1969
     91 C           8.7267   12.4256    9.9655 C.1     1  LIG1        0.0591
     92 C           7.9007   13.6197   10.0935 C.3     1  LIG1        0.0232
     93 H           8.0260   14.1890    9.3058 H       1  LIG1        0.0382
     94 H           8.1606   14.1124   10.8991 H       1  LIG1        0.0382
     95 H           6.9583   13.3573   10.1611 H       1  LIG1        0.0382
@<TRIPOS>BOND
     1    22    21    1
     2    24    23    1
     3    21    23   ar
     4    21    19   ar
     5    23    25   ar
     6     2    26    2
     7    19    20    1
     8    19    17   ar
     9    25    26    1
    10    25    18   ar
    11    26    27    1
    12    30    29    1
    13    27    29    1
    14    27    28    1
    15    37    36    1
    16    17    18   ar
    17    17    16    1
    18    29    31    1
    19    29    32    1
    20    40    39    1
    21    36    38    1
    22    36    39    1
    23    36    35    1
    24    88    87    1
    25    41    39    1
    26    33    32    1
    27    16     1    2
    28    16    14    1
    29    39    42    1
    30    32    35    1
    31    32    34    1
    32    35    87    1
    33    87    89    1
    34    87    84    1
    35    15    14    1
    36    14    11    1
    37     3    44    2
    38    42    43    1
    39    42    44    1
    40    85    84    1
    41    86    84    1
    42    84    82    1
    43    93    92    1
    44    44    45    1
    45    13    11    1
    46    90    91    3
    47    11    12    1
    48    11     8    1
    49    91    92    1
    50    92    95    1
    51    92    94    1
    52    61    60    1
    53     9     8    1
    54    82    83    1
    55    82    81    1
    56     8     7    1
    57     8    10    1
    58    68    66    1
    59     7    60    1
    60     7    63    1
    61    62    60    1
    62    60    57    1
    63    45    46   ar
    64    45    47   ar
    65    56    55    1
    66    70    69    1
    67    46    53   ar
    68    66    63    1
    69    66    67    1
    70    66    69    1
    71    81     6    2
    72    81    80    1
    73    64    63    1
    74    63    65    1
    75    48    47    1
    76    47    49   ar
    77    69    71    1
    78    57    55    1
    79    57    58    1
    80    57    59    1
    81    55    54    1
    82    73    80   ar
    83    73    72   ar
    84    80    78   ar
    85    53    54    1
    86    53    51   ar
    87    54     4    2
    88    71    72    1
    89    71     5    2
    90    49    51   ar
    91    49    50    1
    92    72    74   ar
    93    51    52    1
    94    78    79    1
    95    78    76   ar
    96    74    76   ar
    97    74    75    1
    98    76    77    1
