@<TRIPOS>MOLECULE
?
 61 61 0 0 0
SMALL
GASTEIGER

@<TRIPOS>ATOM
      1 N           3.0930    8.6051    5.2875 N.ar    1  LIG1       -0.2375
      2 N           1.6245   10.9155    5.1550 N.am    1  LIG1       -0.2949
      3 H           2.2147   10.6500    4.5894 H       1  LIG1        0.1503
      4 N          -0.5752   14.2990    4.1894 N.pl3   1  LIG1       -0.3160
      5 N           4.4917    7.8856    3.0886 N.am    1  LIG1       -0.2949
      6 H           4.0381    8.6067    3.2003 H       1  LIG1        0.1503
      7 N           6.1759    7.4742   -0.6698 N.pl3   1  LIG1       -0.3160
      8 O           0.8878   10.5339    7.2816 O.2     1  LIG1       -0.2685
      9 O           5.1976    5.9928    4.1599 O.2     1  LIG1       -0.2685
     10 C           3.8287    7.4894    5.3812 C.ar    1  LIG1        0.1262
     11 C           3.9255    6.7116    6.5321 C.ar    1  LIG1       -0.0311
     12 H           4.4660    5.9305    6.5510 H       1  LIG1        0.0640
     13 C           3.2116    7.1069    7.6439 C.ar    1  LIG1       -0.0574
     14 H           3.2519    6.6005    8.4463 H       1  LIG1        0.0619
     15 C           2.4395    8.2489    7.5763 C.ar    1  LIG1       -0.0311
     16 H           1.9365    8.5400    8.3278 H       1  LIG1        0.0640
     17 C           2.4148    8.9626    6.3851 C.ar    1  LIG1        0.1262
     18 C           1.5623   10.1989    6.3282 C.2     1  LIG1        0.2634
     19 C           0.8712   12.0446    4.8644 C.3     1  LIG1        0.1029
     20 C           1.2149   12.8174    3.7479 C.2     1  LIG1       -0.0403
     21 H           1.9548   12.5686    3.2062 H       1  LIG1        0.0610
     22 C           0.4852   13.9308    3.4409 C.2     1  LIG1       -0.0056
     23 H           0.7289   14.4542    2.6870 H       1  LIG1        0.0781
     24 C          -0.9305   13.5610    5.2496 C.2     1  LIG1       -0.0056
     25 H          -1.6879   13.8218    5.7605 H       1  LIG1        0.0781
     26 C          -0.2359   12.4475    5.6147 C.2     1  LIG1       -0.0403
     27 H          -0.5031   11.9467    6.3768 H       1  LIG1        0.0610
     28 C           4.5825    7.0421    4.1639 C.2     1  LIG1        0.2634
     29 C           5.0473    7.6943    1.8396 C.3     1  LIG1        0.1029
     30 C           4.8030    8.6572    0.8475 C.2     1  LIG1       -0.0403
     31 H           4.2335    9.3941    1.0300 H       1  LIG1        0.0610
     32 C           5.3828    8.5308   -0.3793 C.2     1  LIG1       -0.0056
     33 H           5.2279    9.1944   -1.0407 H       1  LIG1        0.0781
     34 C           6.3959    6.5263    0.2548 C.2     1  LIG1       -0.0056
     35 H           6.9441    5.7823    0.0332 H       1  LIG1        0.0781
     36 C           5.8538    6.6020    1.5053 C.2     1  LIG1       -0.0403
     37 H           6.0216    5.9167    2.1418 H       1  LIG1        0.0610
     38 C          -1.4083   15.4727    3.8166 C.3     1  LIG1        0.0047
     39 H          -2.2397   15.1638    3.4006 H       1  LIG1        0.0431
     40 H          -0.9163   16.0362    3.1837 H       1  LIG1        0.0431
     41 H          -1.6192   15.9922    4.6202 H       1  LIG1        0.0431
     42 C           6.8554    7.3834   -1.9818 C.3     1  LIG1        0.0047
     43 H           7.8208    7.4955   -1.8573 H       1  LIG1        0.0431
     44 H           6.5188    8.0894   -2.5732 H       1  LIG1        0.0431
     45 H           6.6760    6.5085   -2.3824 H       1  LIG1        0.0431
     46 C           0.8981    9.9762    0.5915 C.3     2  LIG2        0.5487
     47 F           2.0822   10.4427    0.2174 F       2  LIG2       -0.1486
     48 F           0.6467   10.4574    1.8042 F       2  LIG2       -0.1486
     49 F          -0.0211   10.4766   -0.2376 F       2  LIG2       -0.1486
     50 S           0.8394    8.1550    0.5714 S.3     2  LIG2        0.2092
     51 O           1.8671    7.7623    1.5010 O.3     2  LIG2       -0.0397
     52 O           1.1256    7.8391   -0.7989 O.2     2  LIG2       -0.1362
     53 O          -0.4965    7.8849    1.0033 O.2     2  LIG2       -0.1362
     54 C           6.2726   11.6056    2.3113 C.3     3  LIG3        0.5487
     55 F           5.8344   11.8022    1.0728 F       3  LIG3       -0.1486
     56 F           6.7402   10.3652    2.3936 F       3  LIG3       -0.1486
     57 F           7.2925   12.4370    2.5153 F       3  LIG3       -0.1486
     58 S           4.9494   11.8996    3.5343 S.3     3  LIG3        0.2092
     59 O           3.9198   10.9598    3.1442 O.2     3  LIG3       -0.1362
     60 O           4.6035   13.2821    3.3242 O.2     3  LIG3       -0.1362
     61 O           5.5808   11.6125    4.7929 O.3     3  LIG3       -0.0397
@<TRIPOS>BOND
     1    44    42    1
     2    45    42    1
     3    42    43    1
     4    42     7    1
     5    33    32    1
     6    52    50    2
     7     7    32    1
     8     7    34    1
     9    32    30    2
    10    49    46    1
    11    35    34    1
    12    47    46    1
    13    34    36    2
    14    50    46    1
    15    50    53    2
    16    50    51    1
    17    46    48    1
    18    30    31    1
    19    30    29    1
    20    55    54    1
    21    36    29    1
    22    36    37    1
    23    29     5    1
    24    54    56    1
    25    54    57    1
    26    54    58    1
    27    23    22    1
    28     5     6    1
    29     5    28   am
    30    59    58    2
    31    40    38    1
    32    21    20    1
    33    60    58    2
    34    39    38    1
    35    22    20    2
    36    22     4    1
    37    58    61    1
    38    20    19    1
    39    38     4    1
    40    38    41    1
    41     9    28    2
    42    28    10    1
    43     4    24    1
    44     3     2    1
    45    19     2    1
    46    19    26    1
    47     2    18   am
    48    24    26    2
    49    24    25    1
    50     1    10   ar
    51     1    17   ar
    52    10    11   ar
    53    26    27    1
    54    18    17    1
    55    18     8    2
    56    17    15   ar
    57    11    12    1
    58    11    13   ar
    59    15    13   ar
    60    15    16    1
    61    13    14    1
