@<TRIPOS>MOLECULE
?
 68 70 0 0 0
SMALL
GASTEIGER

@<TRIPOS>ATOM
      1 O           9.9954    6.2099    1.6725 O.3     1  LIG1       -0.3653
      2 N           8.0189    4.8296    2.9828 N.3     1  LIG1       -0.2902
      3 C           7.7169    5.2719    1.6132 C.3     1  LIG1        0.0284
      4 H           6.7636    5.5276    1.5323 H       1  LIG1        0.0453
      5 H           7.9062    4.5480    0.9661 H       1  LIG1        0.0453
      6 C           8.6019    6.4564    1.3490 C.3     1  LIG1        0.0994
      7 H           8.3576    7.1212    0.6426 H       1  LIG1        0.0635
      8 C           9.1421    6.9042    2.6224 C.3     1  LIG1        0.1019
      9 H           9.2726    7.8792    2.8040 H       1  LIG1        0.0638
     10 C           8.5852    5.9920    3.6946 C.3     1  LIG1        0.0395
     11 H           9.3198    5.6938    4.3048 H       1  LIG1        0.0489
     12 C           7.5131    6.7297    4.4899 C.3     1  LIG1       -0.0348
     13 H           7.9328    7.5062    4.9384 H       1  LIG1        0.0281
     14 H           6.8374    7.0806    3.8554 H       1  LIG1        0.0281
     15 C           6.8035    5.8905    5.5405 C.3     1  LIG1       -0.0516
     16 H           7.4803    5.4907    6.1426 H       1  LIG1        0.0266
     17 H           6.3255    5.1500    5.0911 H       1  LIG1        0.0266
     18 C           5.8092    6.6817    6.3754 C.3     1  LIG1       -0.0530
     19 H           5.1757    7.1378    5.7652 H       1  LIG1        0.0265
     20 H           6.3005    7.3815    6.8751 H       1  LIG1        0.0265
     21 C           5.0147    5.8415    7.3658 C.3     1  LIG1       -0.0531
     22 H           4.5083    5.1518    6.8661 H       1  LIG1        0.0265
     23 H           5.6459    5.3744    7.9670 H       1  LIG1        0.0265
     24 C           4.0419    6.6540    8.2060 C.3     1  LIG1       -0.0531
     25 H           4.5516    7.3354    8.7129 H       1  LIG1        0.0265
     26 H           3.4218    7.1332    7.6030 H       1  LIG1        0.0265
     27 C           3.2308    5.8286    9.1802 C.3     1  LIG1       -0.0531
     28 H           3.8515    5.3420    9.7779 H       1  LIG1        0.0265
     29 H           2.7139    5.1537    8.6725 H       1  LIG1        0.0265
     30 C           2.2658    6.6466   10.0322 C.3     1  LIG1       -0.0531
     31 H           2.7849    7.3151   10.5463 H       1  LIG1        0.0265
     32 H           1.6523    7.1396    9.4319 H       1  LIG1        0.0265
     33 C           1.4402    5.8240   11.0019 C.3     1  LIG1       -0.0531
     34 H           2.0526    5.3245   11.5977 H       1  LIG1        0.0265
     35 H           0.9139    5.1602   10.4879 H       1  LIG1        0.0265
     36 C           0.4880    6.6475   11.8570 C.3     1  LIG1       -0.0531
     37 H           1.0149    7.3114   12.3661 H       1  LIG1        0.0265
     38 H          -0.1233    7.1470   11.2607 H       1  LIG1        0.0265
     39 C          -0.3448    5.8304   12.8330 C.3     1  LIG1       -0.0531
     40 H           0.2654    5.3236   13.4266 H       1  LIG1        0.0265
     41 H          -0.8817    5.1749   12.3212 H       1  LIG1        0.0265
     42 C          -1.2825    6.6679   13.6958 C.3     1  LIG1       -0.0531
     43 H          -0.7418    7.3114   14.2175 H       1  LIG1        0.0265
     44 H          -1.8777    7.1904   13.1031 H       1  LIG1        0.0265
     45 C          -2.1381    5.8609   14.6542 C.3     1  LIG1       -0.0533
     46 H          -2.6506    5.1915   14.1366 H       1  LIG1        0.0265
     47 H          -1.5429    5.3679   15.2734 H       1  LIG1        0.0265
     48 C          -3.1075    6.6891   15.4694 C.3     1  LIG1       -0.0559
     49 H          -3.6960    7.1904   14.8511 H       1  LIG1        0.0263
     50 H          -2.5951    7.3502   15.9969 H       1  LIG1        0.0263
     51 C          -3.9742    5.8738   16.4134 C.3     1  LIG1       -0.0653
     52 H          -4.4061    5.1482   15.9160 H       1  LIG1        0.0230
     53 H          -4.6588    6.4527   16.8102 H       1  LIG1        0.0230
     54 H          -3.4157    5.4953   17.1248 H       1  LIG1        0.0230
     55 C           8.8584    3.6211    3.0111 C.3     1  LIG1        0.0245
     56 H           9.1959    3.4733    3.9318 H       1  LIG1        0.0476
     57 H           9.6379    3.7439    2.4130 H       1  LIG1        0.0476
     58 C           8.0605    2.4134    2.5631 C.ar    1  LIG1       -0.0333
     59 C           6.9496    1.9998    3.2825 C.ar    1  LIG1       -0.0573
     60 H           6.7014    2.4762    4.0666 H       1  LIG1        0.0621
     61 C           6.1973    0.9150    2.8898 C.ar    1  LIG1       -0.0615
     62 H           5.4499    0.6398    3.4061 H       1  LIG1        0.0618
     63 C           6.5365    0.2253    1.7327 C.ar    1  LIG1       -0.0617
     64 H           6.0207   -0.5226    1.4559 H       1  LIG1        0.0618
     65 C           7.6247    0.6306    0.9895 C.ar    1  LIG1       -0.0615
     66 H           7.8546    0.1736    0.1887 H       1  LIG1        0.0618
     67 C           8.3820    1.7108    1.4177 C.ar    1  LIG1       -0.0573
     68 H           9.1415    1.9740    0.9122 H       1  LIG1        0.0621
@<TRIPOS>BOND
     1    66    65    1
     2     7     6    1
     3    68    67    1
     4     5     3    1
     5    65    67   ar
     6    65    63   ar
     7     6     3    1
     8     6     1    1
     9     6     8    1
    10    67    58   ar
    11    64    63    1
    12     4     3    1
    13     3     2    1
    14     1     8    1
    15    63    61   ar
    16    57    55    1
    17    58    55    1
    18    58    59   ar
    19     8     9    1
    20     8    10    1
    21    61    59   ar
    22    61    62    1
    23     2    55    1
    24     2    10    1
    25    55    56    1
    26    59    60    1
    27    10    11    1
    28    10    12    1
    29    14    12    1
    30    12    13    1
    31    12    15    1
    32    17    15    1
    33    15    16    1
    34    15    18    1
    35    19    18    1
    36    18    20    1
    37    18    21    1
    38    22    21    1
    39    21    23    1
    40    21    24    1
    41    26    24    1
    42    24    25    1
    43    24    27    1
    44    29    27    1
    45    27    28    1
    46    27    30    1
    47    32    30    1
    48    30    31    1
    49    30    33    1
    50    35    33    1
    51    33    34    1
    52    33    36    1
    53    38    36    1
    54    36    37    1
    55    36    39    1
    56    41    39    1
    57    39    40    1
    58    39    42    1
    59    44    42    1
    60    42    43    1
    61    42    45    1
    62    46    45    1
    63    45    47    1
    64    45    48    1
    65    49    48    1
    66    48    50    1
    67    48    51    1
    68    52    51    1
    69    51    53    1
    70    51    54    1
