@<TRIPOS>MOLECULE
1,2,4,5-Tetrakis-(2,2-dibromocyclopropyl)-benzene
 40 44 0 0 0
SMALL
GASTEIGER

@<TRIPOS>ATOM
      1 BR         16.8308    8.0743    7.9524 Br      1  LIG1       -0.0715
      2 BR         14.8942    6.8334    5.7617 Br      1  LIG1       -0.0715
      3 BR         19.6240    7.6843    5.4273 Br      1  LIG1       -0.0715
      4 BR         17.8101    6.6670    3.0293 Br      1  LIG1       -0.0715
      5 BR         14.5326    7.3831   -0.4706 Br      1  LIG1       -0.0715
      6 BR         13.1476    9.6134   -2.2776 Br      1  LIG1       -0.0715
      7 BR         11.5348    7.5980    2.4829 Br      1  LIG1       -0.0715
      8 BR         10.1337    9.5179    0.3766 Br      1  LIG1       -0.0715
      9 C          15.3144    9.7415    4.3947 C.ar    1  LIG1       -0.0383
     10 C          16.3799    9.6319    3.4773 C.ar    1  LIG1       -0.0383
     11 C          16.1024    9.7493    2.1282 C.ar    1  LIG1       -0.0542
     12 H          16.8219    9.6733    1.5129 H       1  LIG1        0.0623
     13 C          14.8296    9.9729    1.6288 C.ar    1  LIG1       -0.0383
     14 C          13.7573   10.0578    2.5408 C.ar    1  LIG1       -0.0383
     15 C          14.0245    9.9326    3.8829 C.ar    1  LIG1       -0.0542
     16 H          13.2999    9.9773    4.4939 H       1  LIG1        0.0623
     17 C          15.5576    9.6923    5.8487 C.3     1  LIG1        0.0115
     18 H          16.2857   10.3082    6.1482 H       1  LIG1        0.0371
     19 C          15.4823    8.4201    6.6542 C.3     1  LIG1        0.0884
     20 C          14.4784    9.4866    6.8919 C.3     1  LIG1       -0.0185
     21 H          14.5453   10.0031    7.7342 H       1  LIG1        0.0293
     22 H          13.5551    9.3278    6.5724 H       1  LIG1        0.0293
     23 C          17.7760    9.4743    3.9774 C.3     1  LIG1        0.0115
     24 H          17.9559   10.0042    4.8073 H       1  LIG1        0.0371
     25 C          18.9974    9.3413    3.0845 C.3     1  LIG1       -0.0185
     26 H          18.8484    9.2865    2.1067 H       1  LIG1        0.0293
     27 H          19.8196    9.8197    3.3557 H       1  LIG1        0.0293
     28 C          18.5554    8.1809    3.9234 C.3     1  LIG1        0.0884
     29 C          14.6223   10.2680    0.1789 C.3     1  LIG1        0.0115
     30 H          14.1016   11.1076    0.0212 H       1  LIG1        0.0371
     31 C          15.6844   10.0187   -0.8722 C.3     1  LIG1       -0.0185
     32 H          15.8129   10.7085   -1.5718 H       1  LIG1        0.0293
     33 H          16.5101    9.5503   -0.5915 H       1  LIG1        0.0293
     34 C          14.4185    9.2373   -0.8941 C.3     1  LIG1        0.0884
     35 C          12.3868   10.3854    2.0514 C.3     1  LIG1        0.0115
     36 H          12.3800   11.0863    1.3385 H       1  LIG1        0.0371
     37 C          11.1706   10.4424    2.9551 C.3     1  LIG1       -0.0185
     38 H          11.2837   10.1674    3.9001 H       1  LIG1        0.0293
     39 H          10.5231   11.1780    2.8114 H       1  LIG1        0.0293
     40 C          11.2648    9.3949    1.9166 C.3     1  LIG1        0.0884
@<TRIPOS>BOND
     1     6    34    1
     2    32    31    1
     3    34    31    1
     4    34     5    1
     5    34    29    1
     6    31    33    1
     7    31    29    1
     8    30    29    1
     9    29    13    1
    10     8    40    1
    11    36    35    1
    12    12    11    1
    13    13    11   ar
    14    13    14   ar
    15    40    35    1
    16    40     7    1
    17    40    37    1
    18    35    14    1
    19    35    37    1
    20    26    25    1
    21    11    10   ar
    22    14    15   ar
    23    39    37    1
    24    37    38    1
    25     4    28    1
    26    25    27    1
    27    25    28    1
    28    25    23    1
    29    10    23    1
    30    10     9   ar
    31    15     9   ar
    32    15    16    1
    33    28    23    1
    34    28     3    1
    35    23    24    1
    36     9    17    1
    37     2    19    1
    38    17    18    1
    39    17    19    1
    40    17    20    1
    41    22    20    1
    42    19    20    1
    43    19     1    1
    44    20    21    1
