@<TRIPOS>MOLECULE
?
 84 90 0 0 0
SMALL
GASTEIGER

@<TRIPOS>ATOM
      1 O           4.0226    4.7292    9.3233 O.3     1  LIG1       -0.3532
      2 O           6.7284    5.9210    0.3451 O.3     2  LIG2       -0.3532
      3 O           1.2185    1.8862   10.6606 O.2     1  LIG1       -0.2755
      4 O           4.3197    2.9220   -1.6513 O.2     2  LIG2       -0.2755
      5 N           5.0034    4.6073   -0.3127 N.am    2  LIG2       -0.2632
      6 N           2.8441    2.8059    9.4250 N.am    1  LIG1       -0.2632
      7 C           6.9641    4.6746    0.9629 C.3     2  LIG2        0.0730
      8 H           6.9631    4.7721    1.9259 H       2  LIG2        0.0583
      9 H           7.8261    4.3225    0.6896 H       2  LIG2        0.0583
     10 C           2.7808    5.0169    8.6410 C.3     1  LIG1        0.0730
     11 H           2.9425    5.1915    7.7003 H       1  LIG1        0.0583
     12 H           2.3493    5.7933    9.0319 H       1  LIG1        0.0583
     13 C           5.8352    3.7227    0.5212 C.3     2  LIG2        0.0772
     14 H           6.2190    3.0244   -0.0508 H       2  LIG2        0.0574
     15 C           1.8993    3.7598    8.8151 C.3     1  LIG1        0.0772
     16 H           1.1931    3.9607    9.4641 H       1  LIG1        0.0574
     17 C           2.4194    1.9974   10.3994 C.2     1  LIG1        0.2182
     18 C           4.4093    4.1323   -1.4285 C.2     2  LIG2        0.2182
     19 C           3.4460    1.2162   11.1621 C.3     1  LIG1        0.0249
     20 H           3.2278    0.2731   11.0976 H       1  LIG1        0.0359
     21 H           3.3915    1.4649   12.0986 H       1  LIG1        0.0359
     22 C           3.8775    5.1350   -2.4153 C.3     2  LIG2        0.0249
     23 H           2.9541    4.9126   -2.6091 H       2  LIG2        0.0359
     24 H           4.3781    5.0462   -3.2416 H       2  LIG2        0.0359
     25 C           3.9369    6.5764   -1.9767 C.3     2  LIG2       -0.0341
     26 H           3.1928    6.7627   -1.3824 H       2  LIG2        0.0277
     27 H           3.8502    7.1519   -2.7521 H       2  LIG2        0.0277
     28 C           4.8788    1.4152   10.6908 C.3     1  LIG1       -0.0341
     29 H           5.0385    0.8661    9.9058 H       1  LIG1        0.0277
     30 H           5.4895    1.1284   11.3868 H       1  LIG1        0.0277
     31 C           5.2460    6.8915   -1.2575 C.3     2  LIG2        0.0264
     32 H           5.9823    6.6545   -1.8591 H       2  LIG2        0.0390
     33 C           5.1544    2.8781   10.3472 C.3     1  LIG1        0.0264
     34 H           4.9353    3.4126   11.1389 H       1  LIG1        0.0390
     35 C           5.3852    8.3583   -0.9121 C.2     2  LIG2       -0.0691
     36 C           6.6164    3.1093   10.0329 C.2     1  LIG1       -0.0691
     37 C           5.2528    8.8177    0.3337 C.2     2  LIG2       -0.0845
     38 H           5.3512    9.7315    0.4767 H       2  LIG2        0.0572
     39 C           7.0167    3.3931    8.7903 C.2     1  LIG1       -0.0845
     40 H           7.9303    3.4896    8.6505 H       1  LIG1        0.0572
     41 C           6.1216    3.5676    7.6170 C.3     1  LIG1       -0.0303
     42 H           6.5268    3.1551    6.8391 H       1  LIG1        0.0309
     43 H           6.0125    4.5137    7.4333 H       1  LIG1        0.0309
     44 C           4.9567    7.9536    1.5159 C.3     2  LIG2       -0.0303
     45 H           4.2593    8.3690    2.0466 H       2  LIG2        0.0309
     46 H           5.7505    7.8843    2.0689 H       2  LIG2        0.0309
     47 C           4.7512    2.9396    7.8706 C.3     1  LIG1       -0.0026
     48 H           4.1268    3.2429    7.1918 H       1  LIG1        0.0313
     49 H           4.8223    1.9740    7.8020 H       1  LIG1        0.0313
     50 C           4.5086    6.5579    1.1031 C.3     2  LIG2       -0.0026
     51 H           4.5710    5.9630    1.8655 H       2  LIG2        0.0313
     52 H           3.5804    6.5891    0.8231 H       2  LIG2        0.0313
     53 C           5.3512    6.0117   -0.0238 C.3     2  LIG2        0.1456
     54 C           4.2272    3.3082    9.2397 C.3     1  LIG1        0.1456
     55 C           5.1330    3.0624    1.6840 C.ar    2  LIG2       -0.0247
     56 C           1.2565    3.2819    7.5258 C.ar    1  LIG1       -0.0247
     57 C           5.8917    2.4500    2.6600 C.ar    2  LIG2       -0.0567
     58 H           6.8199    2.4636    2.5964 H       2  LIG2        0.0621
     59 C           1.2886    1.9662    7.1222 C.ar    1  LIG1       -0.0567
     60 H           1.7308    1.3352    7.6431 H       1  LIG1        0.0621
     61 C           5.2908    1.8209    3.7246 C.ar    2  LIG2       -0.0614
     62 H           5.8158    1.4015    4.3666 H       2  LIG2        0.0618
     63 C           0.6672    1.5732    5.9460 C.ar    1  LIG1       -0.0614
     64 H           0.6984    0.6798    5.6918 H       1  LIG1        0.0618
     65 C           3.9116    1.8043    3.8486 C.ar    2  LIG2       -0.0617
     66 H           3.5093    1.3947    4.5795 H       2  LIG2        0.0618
     67 C           0.0039    2.4841    5.1515 C.ar    1  LIG1       -0.0617
     68 H          -0.4071    2.2169    4.3602 H       1  LIG1        0.0618
     69 C           3.1489    2.4002    2.8824 C.ar    2  LIG2       -0.0614
     70 H           2.2227    2.3846    2.9555 H       2  LIG2        0.0618
     71 C          -0.0351    3.8037    5.5583 C.ar    1  LIG1       -0.0614
     72 H          -0.4821    4.4318    5.0371 H       1  LIG1        0.0618
     73 C           3.7431    3.0234    1.8019 C.ar    2  LIG2       -0.0567
     74 H           3.2123    3.4204    1.1504 H       2  LIG2        0.0621
     75 C           0.5815    4.2045    6.7342 C.ar    1  LIG1       -0.0567
     76 H           0.5435    5.0969    6.9916 H       1  LIG1        0.0621
     77 C           7.5728    2.9854   11.1834 C.3     1  LIG1       -0.0434
     78 H           7.4492    3.7247   11.7840 H       1  LIG1        0.0274
     79 H           8.4738    2.9883   10.8529 H       1  LIG1        0.0274
     80 H           7.4063    2.1632   11.6505 H       1  LIG1        0.0274
     81 C           5.6365    9.2673   -2.0848 C.3     2  LIG2       -0.0434
     82 H           5.6229   10.1802   -1.7892 H       2  LIG2        0.0274
     83 H           4.9528    9.1337   -2.7458 H       2  LIG2        0.0274
     84 H           6.4946    9.0664   -2.4661 H       2  LIG2        0.0274
@<TRIPOS>BOND
     1    24    22    1
     2    27    25    1
     3    83    81    1
     4    23    22    1
     5    84    81    1
     6    22    25    1
     7    22    18    1
     8    81    82    1
     9    81    35    1
    10    25    26    1
    11    25    31    1
    12    32    31    1
    13     4    18    2
    14    18     5   am
    15    31    35    1
    16    31    53    1
    17    35    37    2
    18     5    53    1
    19     5    13    1
    20    14    13    1
    21    53     2    1
    22    53    50    1
    23    37    38    1
    24    37    44    1
    25     2     7    1
    26    13     7    1
    27    13    55    1
    28     9     7    1
    29    52    50    1
    30     7     8    1
    31    50    44    1
    32    50    51    1
    33    74    73    1
    34    44    45    1
    35    44    46    1
    36    55    73   ar
    37    55    57   ar
    38    73    69   ar
    39    58    57    1
    40    57    61   ar
    41    69    70    1
    42    69    65   ar
    43    61    65   ar
    44    61    62    1
    45    65    66    1
    46    68    67    1
    47    72    71    1
    48    67    71   ar
    49    67    63   ar
    50    71    75   ar
    51    64    63    1
    52    63    59   ar
    53    75    76    1
    54    75    56   ar
    55    42    41    1
    56    59    56   ar
    57    59    60    1
    58    48    47    1
    59    43    41    1
    60    56    15    1
    61    41    47    1
    62    41    39    1
    63    11    10    1
    64    49    47    1
    65    47    54    1
    66    10    15    1
    67    10    12    1
    68    10     1    1
    69    40    39    1
    70    39    36    2
    71    15     6    1
    72    15    16    1
    73    54     1    1
    74    54     6    1
    75    54    33    1
    76     6    17   am
    77    29    28    1
    78    36    33    1
    79    36    77    1
    80    33    28    1
    81    33    34    1
    82    17     3    2
    83    17    19    1
    84    28    19    1
    85    28    30    1
    86    79    77    1
    87    20    19    1
    88    19    21    1
    89    77    80    1
    90    77    78    1
