@<TRIPOS>MOLECULE
?
 33 35 0 0 0
SMALL
GASTEIGER

@<TRIPOS>ATOM
      1 O           1.2424    7.6397    6.8118 O.3     1  LIG1       -0.4190
      2 C           0.4979    7.4817    8.0251 C.3     1  LIG1        0.2546
      3 O           0.8899    6.2365    8.6359 O.3     1  LIG1       -0.4190
      4 C           0.9460    5.1253    7.8570 C.2     1  LIG1        0.3495
      5 C           0.7242    5.3259    6.4028 C.2     1  LIG1        0.1466
      6 C           1.1845    6.6425    5.8876 C.2     1  LIG1        0.3495
      7 C           0.9677    8.5758    8.9460 C.3     1  LIG1        0.0128
      8 H           1.9329    8.4888    9.0909 H       1  LIG1        0.0304
      9 H           0.5009    8.5034    9.8045 H       1  LIG1        0.0304
     10 H           0.7748    9.4480    8.5419 H       1  LIG1        0.0304
     11 C          -0.9885    7.5189    7.7551 C.3     1  LIG1        0.0128
     12 H          -1.2272    8.3841    7.3607 H       1  LIG1        0.0304
     13 H          -1.4766    7.3975    8.5959 H       1  LIG1        0.0304
     14 H          -1.2260    6.7999    7.1329 H       1  LIG1        0.0304
     15 O           1.2178    4.0792    8.3897 O.2     1  LIG1       -0.2446
     16 O           1.5521    6.8906    4.7703 O.2     1  LIG1       -0.2446
     17 C           0.1888    4.4049    5.5551 C.2     1  LIG1       -0.0187
     18 C           0.0537    4.6790    4.0663 C.3     1  LIG1       -0.0221
     19 H           0.9451    4.8365    3.6662 H       1  LIG1        0.0317
     20 H          -0.5039    5.4825    3.9160 H       1  LIG1        0.0317
     21 C          -0.6000    3.4586    3.4290 C.3     1  LIG1       -0.0217
     22 H          -1.4618    3.6994    3.0056 H       1  LIG1        0.0317
     23 H          -0.0071    3.0558    2.7457 H       1  LIG1        0.0317
     24 C          -0.8087    2.5264    4.5706 C.ar    1  LIG1       -0.0213
     25 C          -1.3444    1.2475    4.5246 C.ar    1  LIG1        0.0447
     26 C          -1.5202    0.5060    5.6835 C.ar    1  LIG1       -0.0431
     27 H          -1.8843   -0.3710    5.6434 H       1  LIG1        0.0632
     28 C          -1.1582    1.0607    6.8998 C.ar    1  LIG1       -0.0598
     29 H          -1.3010    0.5643    7.6965 H       1  LIG1        0.0618
     30 C          -0.5910    2.3256    6.9822 C.ar    1  LIG1       -0.0540
     31 H          -0.3005    2.6458    7.8511 H       1  LIG1        0.0624
     32 C          -0.3961    3.0710    5.8025 C.ar    1  LIG1       -0.0163
     33 CL         -1.7633    0.5718    2.9800 Cl      1  LIG1       -0.0832
@<TRIPOS>BOND
     1    23    21    1
     2    33    25    1
     3    22    21    1
     4    21    18    1
     5    21    24    1
     6    19    18    1
     7    20    18    1
     8    18    17    1
     9    25    24   ar
    10    25    26   ar
    11    24    32   ar
    12    16     6    2
    13    17    32    1
    14    17     5    2
    15    27    26    1
    16    26    28   ar
    17    32    30   ar
    18     6     5    1
    19     6     1    1
    20     5     4    1
    21     1     2    1
    22    28    30   ar
    23    28    29    1
    24    30    31    1
    25    14    11    1
    26    12    11    1
    27    11     2    1
    28    11    13    1
    29     4    15    2
    30     4     3    1
    31     2     3    1
    32     2     7    1
    33    10     7    1
    34     7     8    1
    35     7     9    1
