@<TRIPOS>MOLECULE
?
 68 68 0 0 0
SMALL
GASTEIGER

@<TRIPOS>ATOM
      1 F           4.0074   14.3040    4.6788 F       1  LIG1       -0.1886
      2 F           2.0529   13.7152    7.4920 F       1  LIG1       -0.1899
      3 F           4.0103   14.6119    7.4296 F       1  LIG1       -0.1899
      4 F           1.9565   13.6073    4.8275 F       1  LIG1       -0.1886
      5 N           5.4045    2.7671   11.1939 N.am    2  LIG2       -0.2699
      6 O           4.8319    9.8826    6.6739 O.2     1  LIG1       -0.2688
      7 O           4.5053    2.4548   13.1842 O.2     2  LIG2       -0.2688
      8 O           3.8224   11.8111    5.6358 O.2     1  LIG1       -0.5043
      9 H           4.1043   11.0238    5.7100 H       1  LIG1        0.2920
     10 N           5.5335    9.8583    8.7727 N.am    1  LIG1       -0.2699
     11 C           5.8233    3.5609   10.0805 C.ar    2  LIG2        0.0363
     12 O           3.1934    4.0541   14.3454 O.2     2  LIG2       -0.5043
     13 H           3.5938    3.3325   14.1930 H       2  LIG2        0.2920
     14 C           3.8222   12.3592    6.7530 C.2     1  LIG1        0.1920
     15 C           5.5208   10.0431   11.1881 C.ar    1  LIG1       -0.0403
     16 H           4.9147    9.3126   11.2319 H       1  LIG1        0.0636
     17 C           5.2963    3.3073    8.8383 C.ar    2  LIG2       -0.0403
     18 H           4.6579    2.6139    8.7170 H       2  LIG2        0.0636
     19 C           7.3025   12.1345   11.0579 C.ar    1  LIG1       -0.0600
     20 H           7.9138   12.8602   11.0159 H       1  LIG1        0.0618
     21 N           3.9107    6.1313   10.2262 N.1     2  LIG2       -0.1906
     22 C           5.9714   10.5003    9.9759 C.ar    1  LIG1        0.0363
     23 C           4.9159   10.4958    7.8075 C.2     1  LIG1        0.2644
     24 C           3.9653    4.4890   12.1793 C.2     2  LIG2        0.1569
     25 C           3.1971   13.7477    6.8022 C.3     1  LIG1        0.3761
     26 C           2.9011   14.3372    5.4221 C.3     1  LIG1        0.4099
     27 C           5.9483    8.4705    8.5818 C.3     1  LIG1        0.0086
     28 H           5.3461    8.0345    7.9428 H       1  LIG1        0.0433
     29 H           5.9130    7.9979    9.4393 H       1  LIG1        0.0433
     30 H           6.8641    8.4478    8.2349 H       1  LIG1        0.0433
     31 C           6.7723    4.5253   10.2650 C.ar    2  LIG2       -0.0403
     32 H           7.1527    4.6697   11.1239 H       2  LIG2        0.0636
     33 C           4.3322   11.7954    7.9182 C.2     1  LIG1        0.1569
     34 C           6.8773   11.5205    9.8989 C.ar    1  LIG1       -0.0403
     35 H           7.2102   11.8042    9.0552 H       1  LIG1        0.0636
     36 C           3.2588    4.7914   13.3331 C.2     2  LIG2        0.1920
     37 N           3.9103   12.9836   10.1379 N.1     1  LIG1       -0.1906
     38 C           4.6475    3.2197   12.1689 C.2     2  LIG2        0.2644
     39 C           3.9545    5.3778   11.0747 C.1     2  LIG2        0.1080
     40 C           7.1692    5.2827    9.1900 C.ar    2  LIG2       -0.0600
     41 H           7.8214    5.9647    9.3033 H       2  LIG2        0.0618
     42 C           5.9736    1.4262   11.2845 C.3     2  LIG2        0.0086
     43 H           6.7943    1.4553   11.8181 H       2  LIG2        0.0433
     44 H           6.1801    1.0982   10.3856 H       2  LIG2        0.0433
     45 H           5.3276    0.8254   11.7121 H       2  LIG2        0.0433
     46 C           6.6235    5.0538    7.9546 C.ar    2  LIG2       -0.0616
     47 H           6.8898    5.5878    7.2145 H       2  LIG2        0.0618
     48 C           6.8413   11.6943   12.2723 C.ar    1  LIG1       -0.0616
     49 H           7.1363   12.1136   13.0726 H       1  LIG1        0.0618
     50 C           4.1270   12.4382    9.1642 C.1     1  LIG1        0.1080
     51 C           5.9551   10.6511   12.3343 C.ar    1  LIG1       -0.0600
     52 H           5.6408   10.3489   13.1786 H       1  LIG1        0.0618
     53 C           5.7030    4.0669    7.7773 C.ar    2  LIG2       -0.0600
     54 H           5.3419    3.9061    6.9124 H       2  LIG2        0.0618
     55 C           2.5052    6.0963   13.5263 C.3     2  LIG2        0.3761
     56 C           2.4122   15.7791    5.4023 C.3     1  LIG1        0.4606
     57 F           1.3568   15.9407    6.1556 F       1  LIG1       -0.1648
     58 F           3.3387   16.6074    5.8150 F       1  LIG1       -0.1648
     59 F           2.1009   16.1070    4.1655 F       1  LIG1       -0.1648
     60 C           2.6936    8.4529   14.5945 C.3     2  LIG2        0.4606
     61 C           3.3957    7.1942   14.1021 C.3     2  LIG2        0.4099
     62 F           1.9539    6.5505   12.3901 F       2  LIG2       -0.1899
     63 F           4.2675    7.5664   13.1674 F       2  LIG2       -0.1886
     64 F           4.0849    6.7048   15.1319 F       2  LIG2       -0.1886
     65 F           1.5080    5.8925   14.3940 F       2  LIG2       -0.1899
     66 F           1.9481    8.9566   13.6596 F       2  LIG2       -0.1648
     67 F           1.9587    8.1929   15.6427 F       2  LIG2       -0.1648
     68 F           3.5860    9.3375   14.9500 F       2  LIG2       -0.1648
@<TRIPOS>BOND
     1    59    56    1
     2     1    26    1
     3     4    26    1
     4    56    26    1
     5    56    58    1
     6    56    57    1
     7    26    25    1
     8     8     9    1
     9     8    14    1
    10     6    23    2
    11    14    25    1
    12    14    33    2
    13    25     3    1
    14    25     2    1
    15    54    53    1
    16    47    46    1
    17    53    46   ar
    18    53    17   ar
    19    23    33    1
    20    23    10   am
    21    33    50    1
    22    28    27    1
    23    46    40   ar
    24    30    27    1
    25    27    10    1
    26    27    29    1
    27    18    17    1
    28    10    22    1
    29    17    11   ar
    30    35    34    1
    31    50    37    3
    32    40    41    1
    33    40    31   ar
    34    34    22   ar
    35    34    19   ar
    36    22    15   ar
    37    11    31   ar
    38    11     5    1
    39    21    39    3
    40    31    32    1
    41    44    42    1
    42    20    19    1
    43    19    48   ar
    44    39    24    1
    45    15    16    1
    46    15    51   ar
    47     5    42    1
    48     5    38   am
    49    42    45    1
    50    42    43    1
    51    38    24    1
    52    38     7    2
    53    24    36    2
    54    48    51   ar
    55    48    49    1
    56    51    52    1
    57    62    55    1
    58    63    61    1
    59    36    55    1
    60    36    12    1
    61    55    61    1
    62    55    65    1
    63    66    60    1
    64    61    60    1
    65    61    64    1
    66    13    12    1
    67    60    68    1
    68    60    67    1
