@<TRIPOS>MOLECULE
?
 67 69 0 0 0
SMALL
GASTEIGER

@<TRIPOS>ATOM
      1 C           3.5348    0.7464   14.3878 C.2     1  LIG1        0.4033
      2 C           4.7307    0.3315   16.2777 C.3     1  LIG1        0.1098
      3 H           5.4809   -0.2839   16.2489 H       1  LIG1        0.0714
      4 H           4.4248    0.4079   17.1958 H       1  LIG1        0.0714
      5 C           5.1303    1.6758   15.7399 C.3     1  LIG1        0.0525
      6 H           4.9282    2.3816   16.3738 H       1  LIG1        0.0499
      7 H           6.0762    1.7013   15.5268 H       1  LIG1        0.0499
      8 C           4.4859    2.8406   13.6195 C.3     1  LIG1        0.0496
      9 H           3.9186    2.6644   12.8532 H       1  LIG1        0.0520
     10 H           5.4056    2.8533   13.3122 H       1  LIG1        0.0520
     11 C           4.1349    4.2093   14.1919 C.2     1  LIG1        0.0225
     12 C           4.9233    5.2326   14.3686 C.2     1  LIG1        0.0378
     13 C           4.5797    6.5561   14.8795 C.2     1  LIG1        0.0378
     14 C           4.6161    6.9513   16.1279 C.2     1  LIG1        0.0225
     15 C           4.2552    8.3258   16.6542 C.3     1  LIG1        0.0496
     16 H           4.9606    8.6422   17.2400 H       1  LIG1        0.0520
     17 H           4.1822    8.9459   15.9109 H       1  LIG1        0.0520
     18 C           2.7800    9.0386   18.4443 C.2     1  LIG1        0.4037
     19 C           0.7721    8.2586   17.8028 C.3     1  LIG1        0.1585
     20 H          -0.1375    8.0709   17.7931 H       1  LIG1        0.0789
     21 C           1.7790    7.8194   16.7944 C.3     1  LIG1        0.0589
     22 H           1.7850    6.8540   16.6945 H       1  LIG1        0.0503
     23 H           1.6191    8.2296   15.9301 H       1  LIG1        0.0503
     24 C          10.9316    5.7912   15.5383 C.2     2  LIG2        0.4033
     25 C          12.7869    5.6081   16.8290 C.3     2  LIG2        0.1098
     26 H          13.5216    6.2374   16.9116 H       2  LIG2        0.0714
     27 H          13.1126    4.7227   17.0537 H       2  LIG2        0.0714
     28 C          11.6732    5.9929   17.7355 C.3     2  LIG2        0.0525
     29 H          11.5383    5.3334   18.4347 H       2  LIG2        0.0499
     30 H          11.8255    6.8621   18.1370 H       2  LIG2        0.0499
     31 C           9.1881    6.1841   17.2189 C.3     2  LIG2        0.0496
     32 H           9.0035    5.5884   17.9622 H       2  LIG2        0.0520
     33 H           8.6025    5.9396   16.4871 H       2  LIG2        0.0520
     34 C           8.8964    7.6119   17.6395 C.2     2  LIG2        0.0225
     35 C           8.8308    8.0917   18.8687 C.2     2  LIG2        0.0378
     36 C           8.6249    9.5126   19.2375 C.2     2  LIG2        0.0378
     37 C           9.5552   10.4061   19.3950 C.2     2  LIG2        0.0225
     38 C           9.3594   11.8409   19.7945 C.3     2  LIG2        0.0496
     39 H           8.4424   11.9649   20.0903 H       2  LIG2        0.0520
     40 H           9.9427   12.0437   20.5436 H       2  LIG2        0.0520
     41 C          10.3241   13.9050   18.8937 C.2     2  LIG2        0.4033
     42 C           9.5356   13.8992   16.7502 C.3     2  LIG2        0.1098
     43 H          10.1444   13.5944   16.0588 H       2  LIG2        0.0714
     44 H           8.8498   14.4497   16.3392 H       2  LIG2        0.0714
     45 C           8.9177   12.7275   17.4666 C.3     2  LIG2        0.0525
     46 H           7.9643   12.8538   17.6011 H       2  LIG2        0.0499
     47 H           9.0695   11.8965   16.9903 H       2  LIG2        0.0499
     48 I           2.1142    4.4240   14.7032 I       1  LIG1       -0.0458
     49 I           7.0033    5.1121   13.9051 I       1  LIG1       -0.0419
     50 I           3.9570    7.8937   13.3451 I       1  LIG1       -0.0419
     51 I           5.2461    5.5831   17.5855 I       1  LIG1       -0.0458
     52 I           8.6286    8.9571   16.0330 I       2  LIG2       -0.0458
     53 I           8.9789    6.8590   20.5789 I       2  LIG2       -0.0419
     54 I           6.5652    9.9016   19.5757 I       2  LIG2       -0.0419
     55 I          11.5553    9.8851   19.0011 I       2  LIG2       -0.0458
     56 N           4.3287    1.7906   14.5626 N.am    1  LIG1       -0.2594
     57 N           2.9987    8.2957   17.3840 N.am    1  LIG1       -0.2590
     58 N          10.5573    6.0219   16.8098 N.am    2  LIG2       -0.2594
     59 N           9.6353   12.7611   18.7170 N.am    2  LIG2       -0.2594
     60 O           3.6593   -0.1298   15.4192 O.3     1  LIG1       -0.4487
     61 O           2.7510    0.5470   13.4812 O.2     1  LIG1       -0.2262
     62 O           1.4516    9.0003   18.7516 O.3     1  LIG1       -0.4416
     63 O           3.5372    9.6459   19.1472 O.2     1  LIG1       -0.2262
     64 O          12.2709    5.6243   15.5018 O.3     2  LIG2       -0.4487
     65 O          10.2386    5.7495   14.5510 O.2     2  LIG2       -0.2262
     66 O          10.2374   14.6328   17.7509 O.3     2  LIG2       -0.4487
     67 O          10.9094   14.2874   19.8636 O.2     2  LIG2       -0.2262
@<TRIPOS>BOND
     1     9     8    1
     2    10     8    1
     3    50    13    1
     4    61     1    2
     5     8    11    1
     6     8    56    1
     7    49    12    1
     8    11    12    2
     9    11    48    1
    10    12    13    1
    11     1    56   am
    12     1    60    1
    13    65    24    2
    14    56     5    1
    15    13    14    2
    16    60     2    1
    17    64    24    1
    18    64    25    1
    19     7     5    1
    20    24    58   am
    21     5     2    1
    22     5     6    1
    23    17    15    1
    24    23    21    1
    25    52    34    1
    26    43    42    1
    27    14    15    1
    28    14    51    1
    29     3     2    1
    30     2     4    1
    31    44    42    1
    32    33    31    1
    33    15    16    1
    34    15    57    1
    35    22    21    1
    36    42    45    1
    37    42    66    1
    38    21    57    1
    39    21    19    1
    40    58    31    1
    41    58    28    1
    42    25    26    1
    43    25    27    1
    44    25    28    1
    45    47    45    1
    46    31    34    1
    47    31    32    1
    48    57    18   am
    49    45    46    1
    50    45    59    1
    51    34    35    2
    52    28    30    1
    53    28    29    1
    54    66    41    1
    55    20    19    1
    56    19    62    1
    57    18    62    1
    58    18    63    2
    59    59    41   am
    60    59    38    1
    61    35    36    1
    62    35    53    1
    63    41    67    2
    64    55    37    1
    65    36    37    2
    66    36    54    1
    67    37    38    1
    68    38    39    1
    69    38    40    1
