@<TRIPOS>MOLECULE
?
 46 49 0 0 0
SMALL
GASTEIGER

@<TRIPOS>ATOM
      1 O           6.1528    1.4182    4.4569 O.3     1  LIG1       -0.4914
      2 O           4.0486    2.6000    5.2944 O.3     1  LIG1       -0.4914
      3 O           4.8758    7.1844    6.8444 O.2     1  LIG1       -0.2756
      4 O           8.1998    8.8301    2.5210 O.2     1  LIG1       -0.2732
      5 N           6.4296    7.4448    2.3976 N.am    1  LIG1       -0.2908
      6 N           5.6213    8.1315    4.9016 N.am    1  LIG1       -0.2854
      7 C           6.0212    2.7141    4.0470 C.ar    1  LIG1        0.1618
      8 C           4.8709    3.3680    4.5204 C.ar    1  LIG1        0.1618
      9 C           4.6390    4.6813    4.1714 C.ar    1  LIG1       -0.0110
     10 C           5.5319    5.3775    3.3437 C.ar    1  LIG1       -0.0186
     11 C           6.6509    4.7219    2.8451 C.ar    1  LIG1       -0.0372
     12 C           6.8888    3.3908    3.2161 C.ar    1  LIG1       -0.0128
     13 C           7.3208    0.7194    4.0667 C.3     1  LIG1        0.0790
     14 C           2.9326    3.2363    5.8918 C.3     1  LIG1        0.0790
     15 C           5.2155    6.8111    2.9276 C.3     1  LIG1        0.0673
     16 C           7.0325    6.6666    1.3062 C.3     1  LIG1        0.0194
     17 C           7.6209    5.4033    1.8967 C.3     1  LIG1       -0.0114
     18 C           4.5930    7.6913    4.0004 C.3     1  LIG1        0.0385
     19 C           6.7177    8.9195    4.3655 C.3     1  LIG1        0.1112
     20 C           7.1706    8.3843    3.0154 C.2     1  LIG1        0.2395
     21 C           5.7170    7.8062    6.2114 C.2     1  LIG1        0.2165
     22 C           7.0138    8.3839    6.7061 C.3     1  LIG1        0.0266
     23 C           7.8026    8.7147    5.4494 C.3     1  LIG1       -0.0148
     24 C           6.3388   10.3960    4.2118 C.3     1  LIG1       -0.0349
     25 H           3.8449    5.1193    4.4900 H       1  LIG1        0.0659
     26 H           7.6794    2.9360    2.8830 H       1  LIG1        0.0658
     27 H           7.2680    0.5987    3.1061 H       1  LIG1        0.0660
     28 H           7.2516   -0.1353    4.5248 H       1  LIG1        0.0660
     29 H           8.1441    1.2644    4.3041 H       1  LIG1        0.0660
     30 H           3.2286    4.0103    6.4316 H       1  LIG1        0.0660
     31 H           2.5097    2.5690    6.4736 H       1  LIG1        0.0660
     32 H           2.3097    3.5481    5.2096 H       1  LIG1        0.0660
     33 H           4.5774    6.7922    2.1910 H       1  LIG1        0.0566
     34 H           7.6835    7.2289    0.8623 H       1  LIG1        0.0468
     35 H           6.2993    6.4427    0.6584 H       1  LIG1        0.0468
     36 H           8.4918    5.6511    2.3805 H       1  LIG1        0.0328
     37 H           7.8879    4.7724    1.1777 H       1  LIG1        0.0328
     38 H           4.1902    8.4840    3.5834 H       1  LIG1        0.0486
     39 H           3.8910    7.2276    4.5164 H       1  LIG1        0.0486
     40 H           7.5270    7.7566    7.2675 H       1  LIG1        0.0359
     41 H           6.8098    9.1724    7.2447 H       1  LIG1        0.0359
     42 H           8.3751    7.9857    5.1796 H       1  LIG1        0.0295
     43 H           8.3651    9.5287    5.5070 H       1  LIG1        0.0295
     44 H           7.0775   10.8534    3.7813 H       1  LIG1        0.0255
     45 H           6.2191   10.7663    5.0945 H       1  LIG1        0.0255
     46 H           5.4889   10.4851    3.6793 H       1  LIG1        0.0255
@<TRIPOS>BOND
     1    35    16    1
     2    34    16    1
     3    37    17    1
     4    16    17    1
     5    16     5    1
     6    17    36    1
     7    17    11    1
     8    33    15    1
     9     5    15    1
    10     5    20   am
    11     4    20    2
    12    11    12   ar
    13    11    10   ar
    14    26    12    1
    15    15    10    1
    16    15    18    1
    17    20    19    1
    18    27    13    1
    19    12     7   ar
    20    10     9   ar
    21    38    18    1
    22    46    24    1
    23    44    24    1
    24    18    39    1
    25    18     6    1
    26     7     1    1
    27     7     8   ar
    28    13    29    1
    29    13     1    1
    30    13    28    1
    31     9    25    1
    32     9     8   ar
    33    24    19    1
    34    24    45    1
    35    19     6    1
    36    19    23    1
    37     8     2    1
    38     6    21   am
    39    42    23    1
    40    32    14    1
    41     2    14    1
    42    23    43    1
    43    23    22    1
    44    14    30    1
    45    14    31    1
    46    21    22    1
    47    21     3    2
    48    22    41    1
    49    22    40    1
