@<TRIPOS>MOLECULE
C20 H18 N4
 42 45 0 0 0
SMALL
GASTEIGER

@<TRIPOS>ATOM
      1 N           0.7734    1.6039    6.2268 N.ar    1  LIG1       -0.2145
      2 N           0.1035    0.3937    4.2743 N.ar    1  LIG1       -0.2139
      3 N          -1.8839    6.1919    4.6747 N.ar    1  LIG1       -0.2550
      4 N           1.2021   -0.6401    5.9815 N.pl3   1  LIG1       -0.3134
      5 C           0.6680    0.4908    5.5065 C.ar    1  LIG1        0.2163
      6 C          -0.4782    1.4759    3.7770 C.ar    1  LIG1        0.0844
      7 C          -0.6106    2.6795    4.5400 C.ar    1  LIG1        0.0356
      8 C          -1.3854    3.8460    4.1754 C.ar    1  LIG1        0.0116
      9 C          -2.3627    3.9115    3.1691 C.ar    1  LIG1       -0.0504
     10 C          -3.0316    5.0651    2.9171 C.ar    1  LIG1       -0.0430
     11 C          -2.7446    6.1965    3.6791 C.ar    1  LIG1        0.0283
     12 C          -1.2279    5.0295    4.9452 C.ar    1  LIG1        0.0717
     13 C          -0.3782    5.0180    6.0882 C.ar    1  LIG1       -0.0337
     14 C           0.2362    3.8996    6.4895 C.ar    1  LIG1       -0.0335
     15 C           0.1198    2.6848    5.7304 C.ar    1  LIG1        0.0773
     16 C          -0.8634    1.3630    2.3393 C.ar    1  LIG1        0.0011
     17 C          -0.2961    2.2204    1.4251 C.ar    1  LIG1       -0.0525
     18 C          -0.5533    2.0908    0.0708 C.ar    1  LIG1       -0.0611
     19 C          -1.4016    1.0930   -0.3645 C.ar    1  LIG1       -0.0617
     20 C          -1.9682    0.2430    0.5322 C.ar    1  LIG1       -0.0611
     21 C          -1.6953    0.3545    1.8933 C.ar    1  LIG1       -0.0525
     22 C           2.0046   -0.6810    7.2040 C.3     1  LIG1        0.0115
     23 C           1.1919   -0.8007    8.3964 C.3     1  LIG1       -0.0402
     24 C           2.0234   -0.8972    9.6616 C.3     1  LIG1       -0.0639
     25 H          -2.5593    3.1357    2.6573 H       1  LIG1        0.0625
     26 H          -3.6862    5.1006    2.2297 H       1  LIG1        0.0633
     27 H          -3.1921    7.0087    3.4706 H       1  LIG1        0.0830
     28 H          -0.2447    5.8210    6.5768 H       1  LIG1        0.0640
     29 H           0.7539    3.9091    7.2855 H       1  LIG1        0.0640
     30 H           0.2809    2.9115    1.7276 H       1  LIG1        0.0624
     31 H          -0.1493    2.6820   -0.5526 H       1  LIG1        0.0618
     32 H          -1.5908    0.9999   -1.2903 H       1  LIG1        0.0618
     33 H          -2.5581   -0.4359    0.2259 H       1  LIG1        0.0618
     34 H          -2.0785   -0.2577    2.5099 H       1  LIG1        0.0624
     35 H           1.0553   -1.4481    5.5046 H       1  LIG1        0.1489
     36 H           2.5139    0.1183    7.2612 H       1  LIG1        0.0462
     37 H           2.5903   -1.4280    7.1585 H       1  LIG1        0.0462
     38 H           0.6575   -1.5828    8.3237 H       1  LIG1        0.0278
     39 H           0.6302   -0.0373    8.4595 H       1  LIG1        0.0278
     40 H           2.6306   -0.1674    9.6984 H       1  LIG1        0.0230
     41 H           1.4508   -0.8710   10.4187 H       1  LIG1        0.0230
     42 H           2.5096   -1.7135    9.6596 H       1  LIG1        0.0230
@<TRIPOS>BOND
     1    32    19    1
     2    31    18    1
     3    19    18   ar
     4    19    20   ar
     5    18    17   ar
     6    33    20    1
     7    20    21   ar
     8    17    30    1
     9    17    16   ar
    10    21    16   ar
    11    21    34    1
    12    26    10    1
    13    16     6    1
    14    25     9    1
    15    10     9   ar
    16    10    11   ar
    17     9     8   ar
    18    27    11    1
    19    11     3   ar
    20     6     2   ar
    21     6     7   ar
    22     8     7   ar
    23     8    12   ar
    24     2     5   ar
    25     7    15   ar
    26     3    12   ar
    27    12    13   ar
    28    35     4    1
    29     5     4    1
    30     5     1   ar
    31    15     1   ar
    32    15    14   ar
    33     4    22    1
    34    13    14   ar
    35    13    28    1
    36    14    29    1
    37    37    22    1
    38    22    36    1
    39    22    23    1
    40    38    23    1
    41    23    39    1
    42    23    24    1
    43    42    24    1
    44    24    40    1
    45    24    41    1
