@<TRIPOS>MOLECULE
?
 100 108 0 0 0
SMALL
GASTEIGER

@<TRIPOS>ATOM
      1 CL         -2.1263    5.9395    5.6404 Cl      1  LIG1       -0.0409
      2 CL         -2.9194   18.1679    0.3707 Cl      1  LIG1       -0.0409
      3 N           1.1267   16.1676    2.3094 N.pl3   1  LIG1       -0.2908
      4 N           1.3988    9.2760    4.9121 N.pl3   1  LIG1       -0.2908
      5 N          -0.6256   10.0461    5.6516 N.ar    1  LIG1       -0.1804
      6 N          -0.2757    7.7062    5.2493 N.ar    1  LIG1       -0.1839
      7 N          -2.3735    8.4730    6.1146 N.ar    1  LIG1       -0.1836
      8 N          -2.6610   10.7516    6.4429 N.pl3   1  LIG1       -0.2650
      9 N          -2.9322   15.0011    4.1050 N.pl3   1  LIG1       -0.2650
     10 N          -2.8941   16.4572    2.3141 N.ar    1  LIG1       -0.1836
     11 N          -0.7877   17.1112    1.3928 N.ar    1  LIG1       -0.1839
     12 N          -0.8746   15.5551    3.2178 N.ar    1  LIG1       -0.1804
     13 C           2.3102   19.0367    2.3223 C.ar    1  LIG1       -0.0571
     14 H           1.3664   19.1078    2.4099 H       1  LIG1        0.0621
     15 C           3.1200   20.0959    2.7183 C.ar    1  LIG1       -0.0615
     16 H           2.7299   20.8828    3.0804 H       1  LIG1        0.0618
     17 C           4.4848   20.0044    2.5863 C.ar    1  LIG1       -0.0617
     18 H           5.0349   20.7387    2.8312 H       1  LIG1        0.0618
     19 C           5.0533   18.8502    2.1002 C.ar    1  LIG1       -0.0615
     20 H           5.9980   18.7798    2.0263 H       1  LIG1        0.0618
     21 C           4.2443   17.7846    1.7156 C.ar    1  LIG1       -0.0571
     22 H           4.6425   16.9854    1.3902 H       1  LIG1        0.0621
     23 C           2.8663   17.8765    1.8018 C.ar    1  LIG1       -0.0301
     24 C           1.9781   16.7686    1.2795 C.3     1  LIG1        0.0403
     25 H           1.4028   17.1313    0.5607 H       1  LIG1        0.0514
     26 H           2.5473   16.0627    0.8820 H       1  LIG1        0.0514
     27 C           1.7511   15.3005    3.3024 C.3     1  LIG1        0.0403
     28 H           1.3562   15.4974    4.1886 H       1  LIG1        0.0514
     29 H           2.7164   15.5148    3.3492 H       1  LIG1        0.0514
     30 C           1.5949   13.8220    3.0176 C.ar    1  LIG1       -0.0298
     31 C           1.7298   12.9187    4.0660 C.ar    1  LIG1       -0.0524
     32 H           1.8678   13.2489    4.9460 H       1  LIG1        0.0624
     33 C           1.6684   11.5416    3.8609 C.ar    1  LIG1       -0.0298
     34 C           1.4401   11.0677    2.5740 C.ar    1  LIG1       -0.0571
     35 H           1.3910   10.1327    2.4148 H       1  LIG1        0.0621
     36 C           1.2859   11.9575    1.5209 C.ar    1  LIG1       -0.0611
     37 H           1.1239   11.6275    0.6443 H       1  LIG1        0.0618
     38 C           1.3667   13.3248    1.7379 C.ar    1  LIG1       -0.0571
     39 H           1.2656   13.9259    1.0082 H       1  LIG1        0.0621
     40 C           1.9132   10.6336    5.0506 C.3     1  LIG1        0.0403
     41 H           2.8890   10.5850    5.2116 H       1  LIG1        0.0514
     42 H           1.4992   11.0452    5.8509 H       1  LIG1        0.0514
     43 C           2.3198    8.2458    4.4298 C.3     1  LIG1        0.0403
     44 H           2.6988    8.5337    3.5607 H       1  LIG1        0.0514
     45 H           1.8138    7.4091    4.2755 H       1  LIG1        0.0514
     46 C           3.4547    7.9646    5.3914 C.ar    1  LIG1       -0.0301
     47 C           4.7522    7.8621    4.9152 C.ar    1  LIG1       -0.0571
     48 H           4.9280    7.9957    3.9902 H       1  LIG1        0.0621
     49 C           5.8002    7.5658    5.7816 C.ar    1  LIG1       -0.0615
     50 H           6.6868    7.4854    5.4493 H       1  LIG1        0.0618
     51 C           5.5409    7.3889    7.1315 C.ar    1  LIG1       -0.0617
     52 H           6.2548    7.1984    7.7280 H       1  LIG1        0.0618
     53 C           4.2520    7.4896    7.6161 C.ar    1  LIG1       -0.0615
     54 H           4.0802    7.3620    8.5412 H       1  LIG1        0.0618
     55 C           3.2148    7.7752    6.7482 C.ar    1  LIG1       -0.0571
     56 H           2.3283    7.8445    7.0821 H       1  LIG1        0.0621
     57 C           0.1299    9.0054    5.2786 C.ar    1  LIG1        0.2239
     58 C          -1.5199    7.5799    5.6627 C.ar    1  LIG1        0.2286
     59 C          -1.8554    9.7294    6.0652 C.ar    1  LIG1        0.2280
     60 C          -3.8873   10.5027    7.2374 C.3     1  LIG1        0.0450
     61 H          -3.6739   10.6042    8.1985 H       1  LIG1        0.0518
     62 H          -4.1829    9.5695    7.0903 H       1  LIG1        0.0518
     63 C          -5.0069   11.4323    6.8839 C.ar    1  LIG1       -0.0297
     64 C          -5.7347   11.2587    5.7265 C.ar    1  LIG1       -0.0571
     65 H          -5.5371   10.5333    5.1460 H       1  LIG1        0.0621
     66 C          -6.7531   12.1409    5.4083 C.ar    1  LIG1       -0.0615
     67 H          -7.2461   12.0288    4.6050 H       1  LIG1        0.0618
     68 C          -7.0464   13.1694    6.2493 C.ar    1  LIG1       -0.0617
     69 H          -7.7509   13.7657    6.0264 H       1  LIG1        0.0618
     70 C          -6.3527   13.3604    7.3985 C.ar    1  LIG1       -0.0615
     71 H          -6.5725   14.0832    7.9756 H       1  LIG1        0.0618
     72 C          -5.3153   12.4907    7.7298 C.ar    1  LIG1       -0.0571
     73 H          -4.8226   12.6213    8.5313 H       1  LIG1        0.0621
     74 C          -2.1981   12.1130    6.3109 C.ar    1  LIG1        0.0386
     75 C          -2.7124   12.8798    5.2767 C.ar    1  LIG1       -0.0188
     76 H          -3.3382   12.5011    4.6706 H       1  LIG1        0.0655
     77 C          -2.3129   14.2003    5.1242 C.ar    1  LIG1        0.0386
     78 C          -1.3824   14.7433    5.9972 C.ar    1  LIG1       -0.0401
     79 H          -1.0989   15.6440    5.8952 H       1  LIG1        0.0636
     80 C          -0.8681   13.9621    7.0221 C.ar    1  LIG1       -0.0582
     81 H          -0.2231   14.3307    7.6149 H       1  LIG1        0.0619
     82 C          -1.2820   12.6491    7.1929 C.ar    1  LIG1       -0.0401
     83 H          -0.9395   12.1260    7.9084 H       1  LIG1        0.0636
     84 C          -4.3972   14.9819    3.9934 C.3     1  LIG1        0.0450
     85 H          -4.7140   15.9059    3.8345 H       1  LIG1        0.0518
     86 H          -4.7757   14.6803    4.8575 H       1  LIG1        0.0518
     87 C          -4.9330   14.0910    2.8930 C.ar    1  LIG1       -0.0297
     88 C          -4.1348   13.2897    2.0991 C.ar    1  LIG1       -0.0571
     89 H          -3.1905   13.3143    2.2066 H       1  LIG1        0.0621
     90 C          -4.6920   12.4490    1.1453 C.ar    1  LIG1       -0.0615
     91 H          -4.1295   11.9176    0.5951 H       1  LIG1        0.0618
     92 C          -6.0612   12.3835    0.9948 C.ar    1  LIG1       -0.0617
     93 H          -6.4480   11.7806    0.3705 H       1  LIG1        0.0618
     94 C          -6.8597   13.1992    1.7582 C.ar    1  LIG1       -0.0615
     95 H          -7.8018   13.1773    1.6427 H       1  LIG1        0.0618
     96 C          -6.3069   14.0489    2.6873 C.ar    1  LIG1       -0.0571
     97 H          -6.8722   14.6158    3.1968 H       1  LIG1        0.0621
     98 C          -2.1983   15.6926    3.1868 C.ar    1  LIG1        0.2280
     99 C          -2.0936   17.1093    1.4904 C.ar    1  LIG1        0.2286
    100 C          -0.2174   16.2768    2.3015 C.ar    1  LIG1        0.2239
@<TRIPOS>BOND
     1    93    92    1
     2     2    99    1
     3    25    24    1
     4    91    90    1
     5    37    36    1
     6    26    24    1
     7    92    90   ar
     8    92    94   ar
     9    39    38    1
    10    90    88   ar
    11    24    23    1
    12    24     3    1
    13    22    21    1
    14    11    99   ar
    15    11   100   ar
    16    99    10   ar
    17    36    38   ar
    18    36    34   ar
    19    95    94    1
    20    21    23   ar
    21    21    19   ar
    22    38    30   ar
    23    94    96   ar
    24    23    13   ar
    25    20    19    1
    26    88    89    1
    27    88    87   ar
    28    19    17   ar
    29   100     3    1
    30   100    12   ar
    31     3    27    1
    32    10    98   ar
    33    13    14    1
    34    13    15   ar
    35    35    34    1
    36    34    33   ar
    37    17    15   ar
    38    17    18    1
    39    96    87   ar
    40    96    97    1
    41    15    16    1
    42    87    84    1
    43    30    27    1
    44    30    31   ar
    45    98    12   ar
    46    98     9    1
    47    27    29    1
    48    27    28    1
    49    44    43    1
    50    85    84    1
    51    33    31   ar
    52    33    40    1
    53    48    47    1
    54    84     9    1
    55    84    86    1
    56    31    32    1
    57     9    77    1
    58    45    43    1
    59    43     4    1
    60    43    46    1
    61    67    66    1
    62    76    75    1
    63     4    40    1
    64     4    57    1
    65    47    46   ar
    66    47    49   ar
    67    40    41    1
    68    40    42    1
    69    77    75   ar
    70    77    78   ar
    71    65    64    1
    72     6    57   ar
    73     6    58   ar
    74    75    74   ar
    75    57     5   ar
    76    46    55   ar
    77    66    64   ar
    78    66    68   ar
    79    50    49    1
    80     1    58    1
    81     5    59   ar
    82    58     7   ar
    83    64    63   ar
    84    49    51   ar
    85    79    78    1
    86    78    80   ar
    87    69    68    1
    88    59     7   ar
    89    59     8    1
    90    68    70   ar
    91    74     8    1
    92    74    82   ar
    93     8    60    1
    94    55    56    1
    95    55    53   ar
    96    63    60    1
    97    63    72   ar
    98    80    82   ar
    99    80    81    1
   100    62    60    1
   101    51    53   ar
   102    51    52    1
   103    82    83    1
   104    60    61    1
   105    70    72   ar
   106    70    71    1
   107    53    54    1
   108    72    73    1
