@<TRIPOS>MOLECULE
?
 27 27 0 0 0
SMALL
GASTEIGER

@<TRIPOS>ATOM
      1 S          -0.6422    4.4618    7.5013 S.2     1  LIG1       -0.0752
      2 P           1.5288    6.2085    5.3085 P.3     1  LIG1        0.3434
      3 O           0.7332    6.9864    6.4269 O.3     1  LIG1       -0.3077
      4 O           2.7129    5.5544    6.1171 O.3     1  LIG1       -0.3077
      5 O           1.9398    6.9833    4.1301 O.2     1  LIG1       -0.2577
      6 N           0.2573    2.6462    5.8812 N.ar    1  LIG1       -0.2412
      7 C           1.9292    9.0904    6.7859 C.3     1  LIG1       -0.0411
      8 H           2.5759    8.8681    6.1121 H       1  LIG1        0.0252
      9 H           2.3446    9.6290    7.4637 H       1  LIG1        0.0252
     10 H           1.2058    9.5796    6.3866 H       1  LIG1        0.0252
     11 C           1.3988    7.8285    7.4054 C.3     1  LIG1        0.0541
     12 H           2.1322    7.3355    7.8055 H       1  LIG1        0.0562
     13 H           0.7721    8.0574    8.1095 H       1  LIG1        0.0562
     14 C           0.3797    4.8944    4.8975 C.3     1  LIG1        0.1290
     15 H          -0.0011    4.8208    4.0523 H       1  LIG1        0.0506
     16 C           0.0677    3.9224    5.9921 C.ar    1  LIG1        0.0952
     17 C          -0.7210    2.8138    8.0321 C.ar    1  LIG1        0.0232
     18 C          -1.2019    2.3208    9.2427 C.3     1  LIG1        0.0084
     19 H          -1.5468    2.8811    9.8999 H       1  LIG1        0.0367
     20 C          -0.1805    1.9756    7.0205 C.ar    1  LIG1        0.1009
     21 C           4.3173    4.1580    4.9742 C.3     1  LIG1       -0.0411
     22 H           4.1650    3.4653    5.6216 H       1  LIG1        0.0252
     23 H           5.2263    4.1158    4.6685 H       1  LIG1        0.0252
     24 H           3.7234    4.0354    4.2298 H       1  LIG1        0.0252
     25 C           4.0648    5.4834    5.5978 C.3     1  LIG1        0.0541
     26 H           4.6972    5.6285    6.3192 H       1  LIG1        0.0562
     27 H           4.1951    6.1820    4.9380 H       1  LIG1        0.0562
@<TRIPOS>BOND
     1    15    14    1
     2     5     2    2
     3    24    21    1
     4    23    21    1
     5    14     2    1
     6    14    16    1
     7    27    25    1
     8    21    25    1
     9    21    22    1
    10     2     4    1
    11     2     3    1
    12    25     4    1
    13    25    26    1
    14     6    16   ar
    15     6    20   ar
    16    16     1   ar
    17     8     7    1
    18    10     7    1
    19     3    11    1
    20     7    11    1
    21     7     9    1
    22    20    17   ar
    23    11    12    1
    24    11    13    1
    25     1    17   ar
    26    17    18    1
    27    18    19    1
