@<TRIPOS>MOLECULE
?
 39 41 0 0 0
SMALL
GASTEIGER

@<TRIPOS>ATOM
      1 C          -2.1300    5.5375    5.3353 C.ar    1  LIG1        0.1242
      2 C          -3.3731    5.8398    4.8060 C.ar    1  LIG1       -0.0198
      3 H          -3.6510    6.7445    4.7299 H       1  LIG1        0.0654
      4 C          -4.2055    4.8214    4.3910 C.ar    1  LIG1       -0.0561
      5 H          -5.0571    5.0344    4.0275 H       1  LIG1        0.0619
      6 C          -3.8285    3.5030    4.4917 C.ar    1  LIG1       -0.0313
      7 H          -4.4023    2.8024    4.2056 H       1  LIG1        0.0640
      8 C          -2.5800    3.2349    5.0258 C.ar    1  LIG1        0.1297
      9 C          -1.7180    4.2168    5.4531 C.ar    1  LIG1        0.0103
     10 H          -0.8683    3.9984    5.8166 H       1  LIG1        0.0677
     11 C          -0.7266    8.4767    3.9772 C.ar    1  LIG1       -0.0393
     12 C           0.1650    7.5157    3.5094 C.ar    1  LIG1       -0.0581
     13 H           0.3671    6.7599    4.0496 H       1  LIG1        0.0620
     14 C           0.7572    7.6448    2.2729 C.ar    1  LIG1       -0.0615
     15 H           1.3692    6.9850    1.9671 H       1  LIG1        0.0618
     16 C           0.4628    8.7326    1.4784 C.ar    1  LIG1       -0.0617
     17 H           0.8631    8.8198    0.6201 H       1  LIG1        0.0618
     18 C          -0.4084    9.6903    1.9340 C.ar    1  LIG1       -0.0615
     19 H          -0.6140   10.4405    1.3900 H       1  LIG1        0.0618
     20 C          -0.9834    9.5678    3.1643 C.ar    1  LIG1       -0.0581
     21 H          -1.5734   10.2463    3.4713 H       1  LIG1        0.0620
     22 C          -2.6512    8.0784    7.3208 C.ar    1  LIG1        0.0005
     23 C          -2.6324    7.0004    8.1815 C.ar    1  LIG1       -0.0546
     24 H          -2.0998    6.2425    7.9679 H       1  LIG1        0.0622
     25 C          -3.3670    7.0049    9.3431 C.ar    1  LIG1       -0.0614
     26 H          -3.3421    6.2491    9.9178 H       1  LIG1        0.0618
     27 C          -4.1411    8.0916    9.6845 C.ar    1  LIG1       -0.0617
     28 H          -4.6484    8.0894   10.4876 H       1  LIG1        0.0618
     29 C          -4.1672    9.1806    8.8471 C.ar    1  LIG1       -0.0614
     30 H          -4.6890    9.9407    9.0742 H       1  LIG1        0.0618
     31 C          -3.4376    9.1728    7.6732 C.ar    1  LIG1       -0.0546
     32 H          -3.4706    9.9275    7.0973 H       1  LIG1        0.0622
     33 C          -1.4210    8.3740    5.2751 C.3     1  LIG1        0.0434
     34 H          -1.4137    9.3030    5.4728 H       1  LIG1        0.0400
     35 C          -1.8785    8.0960    6.0818 C.3     1  LIG1        0.1868
     36 N          -2.1685    1.8359    5.1486 N.pl3   1  LIG1        0.0565
     37 O          -1.2259    6.4731    5.7736 O.3     1  LIG1       -0.4760
     38 O          -1.0252    1.5843    5.4900 O.2     1  LIG1       -0.1261
     39 O          -2.9958    0.9621    4.9190 O.2     1  LIG1       -0.1261
@<TRIPOS>BOND
     1    17    16    1
     2    19    18    1
     3    16    18   ar
     4    16    14   ar
     5    18    20   ar
     6    15    14    1
     7    14    12   ar
     8    20    21    1
     9    20    11   ar
    10    12    11   ar
    11    12    13    1
    12    11    33    1
    13     5     4    1
    14     7     6    1
    15     4     6   ar
    16     4     2   ar
    17     6     8   ar
    18     3     2    1
    19     2     1   ar
    20    39    36    2
    21     8    36    1
    22     8     9   ar
    23    36    38    2
    24    33    34    1
    25    33    35    1
    26     1     9   ar
    27     1    37    1
    28     9    10    1
    29    37    35    1
    30    35    22    1
    31    32    31    1
    32    22    31   ar
    33    22    23   ar
    34    31    29   ar
    35    24    23    1
    36    23    25   ar
    37    29    30    1
    38    29    27   ar
    39    25    27   ar
    40    25    26    1
    41    27    28    1
