@<TRIPOS>MOLECULE
C25 H30 O6
 61 63 0 0 0
SMALL
GASTEIGER

@<TRIPOS>ATOM
      1 C           4.8851    6.7139    2.9707 C.3     1  LIG1        0.1687
      2 C           4.7089    5.8954    1.6822 C.3     1  LIG1       -0.0012
      3 H           5.4009    5.2167    1.6437 H       1  LIG1        0.0329
      4 H           3.8521    5.4427    1.7116 H       1  LIG1        0.0329
      5 C           4.7756    6.7326    0.4307 C.ar    1  LIG1       -0.0418
      6 C           5.3613    8.0056    0.3943 C.ar    1  LIG1       -0.0339
      7 C           6.0925    7.6485    2.7951 C.3     1  LIG1       -0.0131
      8 H           6.8809    7.1102    2.6228 H       1  LIG1        0.0293
      9 H           6.2389    8.1279    3.6255 H       1  LIG1        0.0293
     10 C           5.9301    8.6763    1.6478 C.3     1  LIG1        0.0198
     11 C           7.3487    9.2153    1.3358 C.3     1  LIG1       -0.0514
     12 H           7.8777    8.5163    0.9439 H       1  LIG1        0.0241
     13 H           7.7637    9.5133    2.1489 H       1  LIG1        0.0241
     14 H           7.2838    9.9504    0.7220 H       1  LIG1        0.0241
     15 C           5.4136    8.6810   -0.8325 C.ar    1  LIG1       -0.0575
     16 H           5.7946    9.5285   -0.8669 H       1  LIG1        0.0621
     17 C           4.9112    8.1182   -1.9985 C.ar    1  LIG1       -0.0615
     18 H           4.9691    8.5801   -2.8043 H       1  LIG1        0.0618
     19 C           4.3192    6.8556   -1.9537 C.ar    1  LIG1       -0.0615
     20 H           3.9718    6.4721   -2.7259 H       1  LIG1        0.0618
     21 C           4.2546    6.1807   -0.7503 C.ar    1  LIG1       -0.0582
     22 H           3.8564    5.3409   -0.7220 H       1  LIG1        0.0620
     23 C           5.0482    9.8612    2.0899 C.ar    1  LIG1       -0.0334
     24 C           5.4792   10.6474    3.1784 C.ar    1  LIG1       -0.0123
     25 H           6.2835   10.4401    3.5967 H       1  LIG1        0.0658
     26 C           4.7368   11.7169    3.6390 C.ar    1  LIG1        0.1618
     27 C           3.5253   12.0625    3.0035 C.ar    1  LIG1        0.1615
     28 C           3.0943   11.2996    1.9318 C.ar    1  LIG1       -0.0160
     29 H           2.2981   11.5170    1.5027 H       1  LIG1        0.0655
     30 C           3.8472   10.2012    1.4866 C.ar    1  LIG1       -0.0540
     31 H           3.5345    9.6922    0.7742 H       1  LIG1        0.0622
     32 C           6.2856   12.1818    5.3896 C.3     1  LIG1        0.0790
     33 H           6.2388   11.2775    5.7091 H       1  LIG1        0.0660
     34 H           6.4017   12.7786    6.1334 H       1  LIG1        0.0660
     35 H           7.0293   12.2712    4.7887 H       1  LIG1        0.0660
     36 C           1.7525   13.6307    2.7870 C.3     1  LIG1        0.0790
     37 H           2.0268   13.8504    1.8943 H       1  LIG1        0.0660
     38 H           1.4030   14.4151    3.2168 H       1  LIG1        0.0660
     39 H           1.0732   12.9529    2.7560 H       1  LIG1        0.0660
     40 C           3.5996    7.4715    3.3128 C.2     1  LIG1        0.3246
     41 C           2.6145    8.9456    4.8665 C.3     1  LIG1        0.0897
     42 H           1.8644    8.3611    5.0589 H       1  LIG1        0.0694
     43 H           2.3550    9.5578    4.1607 H       1  LIG1        0.0694
     44 C           3.0086    9.7136    6.1044 C.3     1  LIG1       -0.0306
     45 H           3.2821    9.0993    6.7888 H       1  LIG1        0.0262
     46 H           2.2586   10.2256    6.4154 H       1  LIG1        0.0262
     47 H           3.7354   10.3054    5.8958 H       1  LIG1        0.0262
     48 C           5.0363    5.6948    4.1009 C.2     1  LIG1        0.3246
     49 C           6.4717    4.4993    5.5245 C.3     1  LIG1        0.0897
     50 H           6.2154    3.6363    5.1621 H       1  LIG1        0.0694
     51 H           5.9222    4.6823    6.3031 H       1  LIG1        0.0694
     52 C           7.9261    4.4930    5.9037 C.3     1  LIG1       -0.0306
     53 H           8.4536    4.2320    5.1451 H       1  LIG1        0.0262
     54 H           8.0667    3.8712    6.6217 H       1  LIG1        0.0262
     55 H           8.1865    5.3722    6.1869 H       1  LIG1        0.0262
     56 O           5.0809   12.5062    4.7045 O.3     1  LIG1       -0.4914
     57 O           2.8736   13.1454    3.5228 O.3     1  LIG1       -0.4915
     58 O           3.7641    8.1659    4.4555 O.3     1  LIG1       -0.4641
     59 O           2.5760    7.4373    2.6856 O.2     1  LIG1       -0.2496
     60 O           4.0941    5.0617    4.5217 O.2     1  LIG1       -0.2496
     61 O           6.2889    5.5446    4.5200 O.3     1  LIG1       -0.4641
@<TRIPOS>BOND
     1    18    17    1
     2    20    19    1
     3    17    19   ar
     4    17    15   ar
     5    19    21   ar
     6    16    15    1
     7    15     6   ar
     8    21    22    1
     9    21     5   ar
    10     6     5   ar
    11     6    10    1
    12     5     2    1
    13    14    11    1
    14    31    30    1
    15    12    11    1
    16    11    10    1
    17    11    13    1
    18    30    28   ar
    19    30    23   ar
    20    29    28    1
    21     3     2    1
    22    10    23    1
    23    10     7    1
    24     2     4    1
    25     2     1    1
    26    37    36    1
    27    28    27   ar
    28    23    24   ar
    29     8     7    1
    30    59    40    2
    31    39    36    1
    32    36    38    1
    33    36    57    1
    34     7     1    1
    35     7     9    1
    36     1    40    1
    37     1    48    1
    38    27    57    1
    39    27    26   ar
    40    24    25    1
    41    24    26   ar
    42    40    58    1
    43    26    56    1
    44    48    61    1
    45    48    60    2
    46    43    41    1
    47    58    41    1
    48    61    49    1
    49    56    32    1
    50    35    32    1
    51    41    42    1
    52    41    44    1
    53    53    52    1
    54    50    49    1
    55    32    33    1
    56    32    34    1
    57    49    52    1
    58    49    51    1
    59    47    44    1
    60    52    55    1
    61    52    54    1
    62    44    46    1
    63    44    45    1
