@<TRIPOS>MOLECULE
?
 28 28 0 0 0
SMALL
GASTEIGER

@<TRIPOS>ATOM
      1 C           4.3821    1.0204    4.9119 C.2     1  LIG1        0.4193
      2 C           4.3614    2.3929    6.9428 C.2     1  LIG1        0.3170
      3 C           3.0641    2.9538    6.4961 C.3     1  LIG1        0.0619
      4 C           3.0258    3.0718    4.9896 C.3     1  LIG1        0.0388
      5 C           2.6625    1.2930    3.2425 C.2     1  LIG1        0.4123
      6 C           1.2397    2.1362    1.4280 C.3     1  LIG1        0.1068
      7 C           0.0816    1.2147    1.7183 C.3     1  LIG1       -0.0253
      8 C           0.7496    3.5467    1.1674 C.3     1  LIG1       -0.0253
      9 C           2.1125    1.6272    0.3076 C.3     1  LIG1       -0.0253
     10 N           3.3427    1.7606    4.3973 N.am    1  LIG1       -0.1719
     11 O           4.9957    1.5575    6.0245 O.3     1  LIG1       -0.3779
     12 O           4.8350    0.0102    4.4718 O.2     1  LIG1       -0.2252
     13 O           4.9147    2.5594    7.9792 O.2     1  LIG1       -0.2503
     14 O           2.6528    0.1551    2.8889 O.2     1  LIG1       -0.2257
     15 O           2.0620    2.3245    2.6657 O.3     1  LIG1       -0.4442
     16 H           2.9355    3.7913    6.9100 H       1  LIG1        0.0393
     17 H           2.3150    2.3604    6.7448 H       1  LIG1        0.0393
     18 H           3.6657    3.7364    4.6848 H       1  LIG1        0.0477
     19 H           2.1456    3.3246    4.7118 H       1  LIG1        0.0477
     20 H           0.3743    0.3166    1.8587 H       1  LIG1        0.0268
     21 H          -0.4237    1.5155    2.4866 H       1  LIG1        0.0268
     22 H          -0.4963    1.2259    0.9794 H       1  LIG1        0.0268
     23 H           1.5003    4.1069    0.9744 H       1  LIG1        0.0268
     24 H           0.2393    3.8846    1.9468 H       1  LIG1        0.0268
     25 H           0.1703    3.5189    0.4046 H       1  LIG1        0.0268
     26 H           2.8917    2.2334    0.1913 H       1  LIG1        0.0268
     27 H           2.4701    0.7255    0.5077 H       1  LIG1        0.0268
     28 H           1.6127    1.5483   -0.5157 H       1  LIG1        0.0268
@<TRIPOS>BOND
     1    28     9    1
     2    26     9    1
     3     9    27    1
     4     9     6    1
     5    25     8    1
     6    23     8    1
     7    22     7    1
     8     8     6    1
     9     8    24    1
    10     6     7    1
    11     6    15    1
    12     7    20    1
    13     7    21    1
    14    15     5    1
    15    14     5    2
    16     5    10   am
    17    10     1   am
    18    10     4    1
    19    12     1    2
    20    18     4    1
    21    19     4    1
    22     1    11    1
    23     4     3    1
    24    11     2    1
    25     3    17    1
    26     3    16    1
    27     3     2    1
    28     2    13    2
