@<TRIPOS>MOLECULE
?
 45 47 0 0 0
SMALL
GASTEIGER

@<TRIPOS>ATOM
      1 N           1.5635    2.9480    4.7489 N.pl3   1  LIG1       -0.2692
      2 C           2.8845    2.8686    4.1861 C.ar    1  LIG1        0.0388
      3 C           3.1957    1.9536    3.1908 C.ar    1  LIG1       -0.0398
      4 H           2.5369    1.3435    2.8823 H       1  LIG1        0.0636
      5 C           4.4734    1.9331    2.6479 C.ar    1  LIG1       -0.0571
      6 H           4.6786    1.3024    1.9668 H       1  LIG1        0.0621
      7 C           5.4591    2.8145    3.0783 C.ar    1  LIG1       -0.0503
      8 C           5.1333    3.7082    4.0900 C.ar    1  LIG1       -0.0571
      9 H           5.7962    4.3093    4.4091 H       1  LIG1        0.0621
     10 C           3.8654    3.7429    4.6450 C.ar    1  LIG1       -0.0398
     11 H           3.6651    4.3616    5.3370 H       1  LIG1        0.0636
     12 C           6.8466    2.7654    2.4944 C.3     1  LIG1       -0.0397
     13 H           7.2343    3.6656    2.4972 H       1  LIG1        0.0278
     14 H           6.8021    2.4317    1.5734 H       1  LIG1        0.0278
     15 H           7.4067    2.1677    3.0317 H       1  LIG1        0.0278
     16 C           0.8069    4.1139    4.4567 C.2     1  LIG1        0.0388
     17 C           1.0790    4.9096    3.4186 C.2     1  LIG1       -0.0763
     18 H           1.8042    4.7040    2.8398 H       1  LIG1        0.0553
     19 H           0.5475    5.6801    3.2592 H       1  LIG1        0.0553
     20 C          -0.2420    4.4607    5.4539 C.ar    1  LIG1       -0.0039
     21 C          -0.0395    4.2133    6.8157 C.ar    1  LIG1       -0.0528
     22 H           0.7596    3.7876    7.1036 H       1  LIG1        0.0624
     23 C          -0.9947    4.5833    7.7476 C.ar    1  LIG1       -0.0611
     24 H          -0.8464    4.4139    8.6702 H       1  LIG1        0.0618
     25 C          -2.1665    5.2010    7.3373 C.ar    1  LIG1       -0.0617
     26 H          -2.8208    5.4535    7.9780 H       1  LIG1        0.0618
     27 C          -2.3813    5.4481    6.0004 C.ar    1  LIG1       -0.0611
     28 H          -3.1853    5.8694    5.7207 H       1  LIG1        0.0618
     29 C          -1.4282    5.0834    5.0590 C.ar    1  LIG1       -0.0528
     30 H          -1.5843    5.2593    4.1391 H       1  LIG1        0.0624
     31 C           0.8778    1.7255    5.0101 C.2     1  LIG1        0.0388
     32 C          -0.3571    1.5017    4.5763 C.2     1  LIG1       -0.0763
     33 H          -0.8124    2.1677    4.0747 H       1  LIG1        0.0553
     34 H          -0.7853    0.6761    4.7682 H       1  LIG1        0.0553
     35 C           1.6183    0.7642    5.8719 C.ar    1  LIG1       -0.0039
     36 C           2.5340    1.2050    6.8244 C.ar    1  LIG1       -0.0528
     37 H           2.7157    2.1341    6.9090 H       1  LIG1        0.0624
     38 C           3.1840    0.2999    7.6521 C.ar    1  LIG1       -0.0611
     39 H           3.8031    0.6126    8.3015 H       1  LIG1        0.0618
     40 C           2.9337   -1.0583    7.5337 C.ar    1  LIG1       -0.0617
     41 H           3.3762   -1.6759    8.1028 H       1  LIG1        0.0618
     42 C           2.0365   -1.5094    6.5823 C.ar    1  LIG1       -0.0611
     43 H           1.8698   -2.4404    6.4951 H       1  LIG1        0.0618
     44 C           1.3804   -0.6111    5.7568 C.ar    1  LIG1       -0.0528
     45 H           0.7647   -0.9301    5.1081 H       1  LIG1        0.0624
@<TRIPOS>BOND
     1    14    12    1
     2     6     5    1
     3    12    13    1
     4    12    15    1
     5    12     7    1
     6     5     7   ar
     7     5     3   ar
     8    18    17    1
     9     4     3    1
    10     7     8   ar
    11     3     2   ar
    12    19    17    1
    13    17    16    2
    14    33    32    1
    15     8     9    1
    16     8    10   ar
    17    30    29    1
    18     2    10   ar
    19     2     1    1
    20    16     1    1
    21    16    20    1
    22    32    34    1
    23    32    31    2
    24    10    11    1
    25     1    31    1
    26    31    35    1
    27    29    20   ar
    28    29    27   ar
    29    45    44    1
    30    20    21   ar
    31    28    27    1
    32    44    35   ar
    33    44    42   ar
    34    35    36   ar
    35    27    25   ar
    36    43    42    1
    37    42    40   ar
    38    21    22    1
    39    21    23   ar
    40    36    37    1
    41    36    38   ar
    42    25    23   ar
    43    25    26    1
    44    40    38   ar
    45    40    41    1
    46    38    39    1
    47    23    24    1
