@<TRIPOS>MOLECULE
?
 27 28 0 0 0
SMALL
GASTEIGER

@<TRIPOS>ATOM
      1 F          10.1772    1.3562    8.0958 F       1  LIG1       -0.2055
      2 O           4.6152    1.6626    5.5529 O.2     1  LIG1       -0.2917
      3 C           6.9984    0.1259    6.9398 C.ar    1  LIG1       -0.0554
      4 H           6.6576   -0.4847    6.2963 H       1  LIG1        0.0621
      5 C           8.3628    0.3054    7.0479 C.ar    1  LIG1       -0.0262
      6 H           8.9629   -0.1797    6.4930 H       1  LIG1        0.0646
      7 C           8.8290    1.1951    7.9699 C.ar    1  LIG1        0.1234
      8 C           8.0030    1.9224    8.7778 C.ar    1  LIG1       -0.0262
      9 H           8.3558    2.5463    9.4014 H       1  LIG1        0.0646
     10 C           6.6324    1.7256    8.6638 C.ar    1  LIG1       -0.0554
     11 H           6.0412    2.2203    9.2199 H       1  LIG1        0.0621
     12 C           6.1144    0.8226    7.7557 C.ar    1  LIG1       -0.0397
     13 C           4.6324    0.5803    7.6719 C.3     1  LIG1        0.0356
     14 H           4.2028    0.9730    8.4729 H       1  LIG1        0.0394
     15 H           4.4707   -0.3962    7.6947 H       1  LIG1        0.0394
     16 C           3.9656    1.1505    6.4390 C.2     1  LIG1        0.1674
     17 C           2.4786    1.0725    6.3430 C.ar    1  LIG1        0.0177
     18 C           1.8391    1.7465    5.3140 C.ar    1  LIG1       -0.0513
     19 H           2.3534    2.2396    4.6851 H       1  LIG1        0.0624
     20 C           0.4756    1.7101    5.1918 C.ar    1  LIG1       -0.0611
     21 H           0.0503    2.1808    4.4837 H       1  LIG1        0.0618
     22 C          -0.2814    0.9949    6.0922 C.ar    1  LIG1       -0.0617
     23 H          -1.2276    0.9712    6.0070 H       1  LIG1        0.0618
     24 C           0.3358    0.3138    7.1154 C.ar    1  LIG1       -0.0611
     25 H          -0.1843   -0.1867    7.7326 H       1  LIG1        0.0618
     26 C           1.7069    0.3561    7.2480 C.ar    1  LIG1       -0.0513
     27 H           2.1263   -0.1078    7.9633 H       1  LIG1        0.0624
@<TRIPOS>BOND
     1    21    20    1
     2    19    18    1
     3    20    18   ar
     4    20    22   ar
     5    18    17   ar
     6     2    16    2
     7    23    22    1
     8    22    24   ar
     9     4     3    1
    10    17    16    1
    11    17    26   ar
    12    16    13    1
    13     6     5    1
    14     3     5   ar
    15     3    12   ar
    16     5     7   ar
    17    24    26   ar
    18    24    25    1
    19    26    27    1
    20    13    15    1
    21    13    12    1
    22    13    14    1
    23    12    10   ar
    24     7     1    1
    25     7     8   ar
    26    10     8   ar
    27    10    11    1
    28     8     9    1
