@<TRIPOS>MOLECULE
4025998.cif
 56 60 0 0 0
SMALL
GASTEIGER

@<TRIPOS>ATOM
      1 F           3.5010    4.7453    5.8169 F       1  LIG1       -0.2047
      2 F           7.4071    5.2803    3.2686 F       1  LIG1       -0.2047
      3 N           4.8384    2.6822    4.0586 N.ar    1  LIG1       -0.2271
      4 N           4.6596    4.3299    2.3103 N.ar    1  LIG1       -0.2311
      5 C           4.4604    1.7200    3.1931 C.ar    1  LIG1        0.0757
      6 C           4.3293    0.3659    3.6387 C.ar    1  LIG1       -0.0350
      7 H           4.5221    0.1807    4.5595 H       1  LIG1        0.0639
      8 C           3.9843   -0.6071    2.7656 C.ar    1  LIG1       -0.0514
      9 H           3.8827   -1.5054    3.0859 H       1  LIG1        0.0624
     10 C           3.7362   -0.3423    1.3703 C.ar    1  LIG1       -0.0088
     11 C           3.8252    1.0010    0.9161 C.ar    1  LIG1        0.0020
     12 C           4.1835    2.0145    1.8398 C.ar    1  LIG1        0.0304
     13 C           4.2670    3.3658    1.4482 C.ar    1  LIG1        0.0578
     14 C           3.9327    3.7078    0.1004 C.3     1  LIG1        0.0198
     15 H           3.9523    4.6438   -0.1437 H       1  LIG1        0.0377
     16 C           3.3522   -2.7433    0.7963 C.2     1  LIG1       -0.0528
     17 H           3.5562   -3.0195    1.6941 H       1  LIG1        0.0624
     18 C           3.4049   -1.3545    0.4414 C.2     1  LIG1       -0.0095
     19 C           4.9399    3.9263    3.5577 C.ar    1  LIG1        0.1661
     20 C           5.4338    4.9555    4.5137 C.ar    1  LIG1        0.0893
     21 C           4.7241    5.3002    5.6555 C.ar    1  LIG1        0.1368
     22 C           5.1868    6.1775    6.6034 C.ar    1  LIG1       -0.0256
     23 H           4.6087    6.4103    7.3245 H       1  LIG1        0.0646
     24 C           6.4317    6.7529    6.4187 C.ar    1  LIG1       -0.0563
     25 H           6.7676    7.3453    7.1073 H       1  LIG1        0.0619
     26 C           7.1898    6.4624    5.2936 C.ar    1  LIG1       -0.0256
     27 H           8.0459    6.8144    5.1643 H       1  LIG1        0.0646
     28 C           6.6630    5.5849    4.3697 C.ar    1  LIG1        0.1368
     29 F           1.9251    8.6888    7.1083 F       2  LIG2       -0.2047
     30 F           6.3008   10.3315    6.7794 F       2  LIG2       -0.2047
     31 N           3.6208    8.4956    4.7523 N.ar    2  LIG2       -0.2271
     32 N           4.1397   10.8405    4.8782 N.ar    2  LIG2       -0.2311
     33 C           3.4511    8.6043    3.4215 C.ar    2  LIG2        0.0757
     34 C           3.1142    7.4476    2.6511 C.ar    2  LIG2       -0.0350
     35 H           3.0424    6.6068    3.1109 H       2  LIG2        0.0639
     36 C           2.8970    7.5585    1.3202 C.ar    2  LIG2       -0.0514
     37 H           2.6570    6.7124    0.8487 H       2  LIG2        0.0624
     38 C           2.9778    8.8100    0.6213 C.ar    2  LIG2       -0.0088
     39 C           3.3320    9.9704    1.3658 C.ar    2  LIG2        0.0020
     40 C           3.5793    9.8442    2.7601 C.ar    2  LIG2        0.0304
     41 C           3.9370   10.9512    3.5503 C.ar    2  LIG2        0.0578
     42 C           4.0630   12.2291    2.9218 C.3     2  LIG2        0.0198
     43 H           4.3287   13.0135    3.4735 H       2  LIG2        0.0377
     44 C           2.3394    7.8231   -1.5941 C.2     2  LIG2       -0.0528
     45 H           2.2500    6.9250   -1.1595 H       2  LIG2        0.0624
     46 C           2.7161    8.9386   -0.7634 C.2     2  LIG2       -0.0095
     47 C           3.9506    9.6236    5.4033 C.ar    2  LIG2        0.1661
     48 C           4.1104    9.5003    6.8771 C.ar    2  LIG2        0.0893
     49 C           3.1079    9.0108    7.6906 C.ar    2  LIG2        0.1368
     50 C           3.2282    8.8662    9.0542 C.ar    2  LIG2       -0.0256
     51 H           2.4975    8.5459    9.5583 H       2  LIG2        0.0646
     52 C           4.4297    9.2271    9.6422 C.ar    2  LIG2       -0.0563
     53 H           4.5554    9.1988   10.5491 H       2  LIG2        0.0619
     54 C           5.4710    9.7186    8.8870 C.ar    2  LIG2       -0.0256
     55 H           6.3202    9.9362    9.3144 H       2  LIG2        0.0646
     56 C           5.2835    9.8577    7.5259 C.ar    2  LIG2        0.1368
@<TRIPOS>BOND
     1    44    45    1
     2    44    46    2
     3    46    38    1
     4    15    14    1
     5    14    13    1
     6    18    16    2
     7    18    10    1
     8    38    36   ar
     9    38    39   ar
    10    16    17    1
    11    37    36    1
    12    11    10   ar
    13    11    12   ar
    14    36    34   ar
    15    39    40   ar
    16    10     8   ar
    17    13    12   ar
    18    13     4   ar
    19    12     5   ar
    20     4    19   ar
    21    34    35    1
    22    34    33   ar
    23    40    33   ar
    24    40    41   ar
    25     8     9    1
    26     8     6   ar
    27    42    43    1
    28    42    41    1
    29     5     6   ar
    30     5     3   ar
    31     2    28    1
    32    33    31   ar
    33    41    32   ar
    34    19     3   ar
    35    19    20    1
    36     6     7    1
    37    28    20   ar
    38    28    26   ar
    39    20    21   ar
    40    31    47   ar
    41    32    47   ar
    42    27    26    1
    43    26    24   ar
    44    47    48    1
    45    21     1    1
    46    21    22   ar
    47    24    22   ar
    48    24    25    1
    49    22    23    1
    50    30    56    1
    51    48    56   ar
    52    48    49   ar
    53    29    49    1
    54    56    54   ar
    55    49    50   ar
    56    54    55    1
    57    54    52   ar
    58    50    51    1
    59    50    52   ar
    60    52    53    1
