@<TRIPOS>MOLECULE
C16 H16 Cl N O4
 38 40 0 0 0
SMALL
GASTEIGER

@<TRIPOS>ATOM
      1 CL          6.2571    2.5328   26.2451 Cl      1  LIG1       -0.0835
      2 N           1.9896    3.2912   19.5213 N.pl3   1  LIG1        0.0648
      3 O           3.7463   -1.2412   21.0027 O.2     1  LIG1       -0.2922
      4 O           4.3008    2.9381   19.1542 O.2     1  LIG1       -0.4654
      5 O           1.0971    3.5947   20.2881 O.2     1  LIG1       -0.1279
      6 O           1.8699    3.1184   18.3390 O.2     1  LIG1       -0.1279
      7 C           7.1901   -0.0738   19.2783 C.3     1  LIG1       -0.0590
      8 H           7.5656   -0.9312   19.4942 H       1  LIG1        0.0235
      9 H           6.8698    0.3448   20.0820 H       1  LIG1        0.0235
     10 H           7.8642    0.4792   18.8769 H       1  LIG1        0.0235
     11 C           6.5600   -0.9253   17.0320 C.3     1  LIG1       -0.0590
     12 H           6.9395   -1.7781   17.2537 H       1  LIG1        0.0235
     13 H           7.2335   -0.3692   16.6332 H       1  LIG1        0.0235
     14 H           5.8378   -1.0486   16.4111 H       1  LIG1        0.0235
     15 C           6.0319   -0.2555   18.3011 C.3     1  LIG1       -0.0211
     16 C           4.9611   -1.1505   18.9311 C.3     1  LIG1        0.0158
     17 H           4.3100   -1.3757   18.2466 H       1  LIG1        0.0350
     18 H           5.3814   -1.9768   19.2166 H       1  LIG1        0.0350
     19 C           4.2251   -0.5583   20.1137 C.2     1  LIG1        0.1637
     20 C           4.0640    0.8876   20.0676 C.2     1  LIG1        0.0455
     21 C           4.5882    1.5972   19.0755 C.2     1  LIG1        0.1086
     22 C           5.4169    1.1195   17.9530 C.3     1  LIG1        0.0110
     23 H           6.1253    1.7582   17.7730 H       1  LIG1        0.0349
     24 H           4.8717    1.0412   17.1558 H       1  LIG1        0.0349
     25 C           3.3602    3.0925   20.1855 C.3     1  LIG1        0.2582
     26 H           3.5865    3.8679   20.7417 H       1  LIG1        0.1054
     27 C           3.3583    1.7981   21.0402 C.3     1  LIG1        0.0781
     28 H           2.4408    1.4902   21.1924 H       1  LIG1        0.0457
     29 C           4.0837    1.9731   22.3574 C.ar    1  LIG1       -0.0341
     30 C           3.4911    1.6142   23.5478 C.ar    1  LIG1       -0.0564
     31 H           2.6348    1.2509   23.5439 H       1  LIG1        0.0621
     32 C           4.1541    1.7877   24.7519 C.ar    1  LIG1       -0.0431
     33 H           3.7450    1.5514   25.5524 H       1  LIG1        0.0632
     34 C           5.4083    2.3069   24.7470 C.ar    1  LIG1        0.0410
     35 C           6.0220    2.6805   23.5837 C.ar    1  LIG1       -0.0431
     36 H           6.8764    3.0482   23.5961 H       1  LIG1        0.0632
     37 C           5.3511    2.5033   22.3926 C.ar    1  LIG1       -0.0564
     38 H           5.7655    2.7477   21.5974 H       1  LIG1        0.0621
@<TRIPOS>BOND
     1    14    11    1
     2    13    11    1
     3    11    12    1
     4    11    15    1
     5    24    22    1
     6    23    22    1
     7    22    15    1
     8    22    21    1
     9    17    16    1
    10    15    16    1
    11    15     7    1
    12     6     2    2
    13    10     7    1
    14    16    18    1
    15    16    19    1
    16    21     4    1
    17    21    20    2
    18     4    25    1
    19     7     8    1
    20     7     9    1
    21     2    25    1
    22     2     5    2
    23    20    19    1
    24    20    27    1
    25    19     3    2
    26    25    26    1
    27    25    27    1
    28    27    28    1
    29    27    29    1
    30    38    37    1
    31    29    37   ar
    32    29    30   ar
    33    37    35   ar
    34    31    30    1
    35    30    32   ar
    36    35    36    1
    37    35    34   ar
    38    34    32   ar
    39    34     1    1
    40    32    33    1
