@<TRIPOS>MOLECULE
C24 H34 Br2 N2 O6
 68 70 0 0 0
SMALL
GASTEIGER

@<TRIPOS>ATOM
      1 BR          5.6563    7.8070    2.8688 Br      1  LIG1       -0.0424
      2 BR          8.2612    5.7933   -1.7849 Br      1  LIG1       -0.0424
      3 O           4.6488   -0.0098   -3.8935 O.3     1  LIG1       -0.1183
      4 O           5.6176    2.8297    8.4331 O.3     1  LIG1       -0.1183
      5 O           5.2139    4.8355    3.3876 O.2     1  LIG1       -0.4835
      6 O           6.1787    2.7660    1.8450 O.2     1  LIG1       -0.2800
      7 O           7.5878    3.1387   -0.5211 O.2     1  LIG1       -0.4835
      8 O           7.2894    7.7339    0.3355 O.2     1  LIG1       -0.2853
      9 N           5.3505    0.7577   -3.1305 N.4     1  LIG1       -0.1428
     10 N           5.5481    3.2883    7.2480 N.4     1  LIG1       -0.1428
     11 C           5.9788    5.0930    2.3221 C.2     1  LIG1        0.1887
     12 C           4.8473    2.4104    6.2527 C.3     1  LIG1        0.0482
     13 C           7.3841    5.4216   -0.1801 C.2     1  LIG1        0.1112
     14 C           4.6128    1.9077   -2.5077 C.3     1  LIG1        0.0482
     15 C           6.1897    4.9680    5.5708 C.3     1  LIG1        0.0046
     16 C           6.6438    2.1922   -1.0600 C.3     1  LIG1        0.1039
     17 C           7.1161    4.1735    0.1856 C.2     1  LIG1        0.1887
     18 C           6.2131    6.3215    1.8821 C.2     1  LIG1        0.1112
     19 C           5.7343    4.0362    4.4970 C.3     1  LIG1        0.1039
     20 C           5.5907    2.8591   -1.8959 C.3     1  LIG1        0.0046
     21 C           6.6000    0.1569   -2.5750 C.3     1  LIG1        0.0482
     22 C           7.4370    1.2628   -1.9495 C.3     1  LIG1        0.0046
     23 C           6.6302    4.2789    6.8480 C.3     1  LIG1        0.0482
     24 C           6.4164    3.8915    1.4628 C.2     1  LIG1        0.2639
     25 C           4.5654    3.2319    4.9768 C.3     1  LIG1        0.0046
     26 C           7.9816    3.6021    6.7311 C.3     1  LIG1       -0.0444
     27 C           5.6923    1.1746    5.9667 C.3     1  LIG1       -0.0444
     28 C           3.5166    1.9862    6.8658 C.3     1  LIG1       -0.0444
     29 C           6.9769    6.5937    0.6572 C.2     1  LIG1        0.2140
     30 C           6.2684   -0.8926   -1.5315 C.3     1  LIG1       -0.0444
     31 C           3.6031    1.3683   -1.5027 C.3     1  LIG1       -0.0444
     32 C           3.8436    2.6164   -3.6281 C.3     1  LIG1       -0.0444
     33 C           7.3592   -0.4929   -3.7313 C.3     1  LIG1       -0.0444
     34 C           6.7218    5.2941    7.9808 C.3     1  LIG1       -0.0444
     35 H           6.1913   -0.5051   -0.6709 H       1  LIG1        0.0248
     36 H           6.9588   -1.5595   -1.5274 H       1  LIG1        0.0248
     37 H           5.4381   -1.3021   -1.7763 H       1  LIG1        0.0248
     38 H           2.7736    1.2015   -1.9467 H       1  LIG1        0.0248
     39 H           3.4600    1.9887   -0.7946 H       1  LIG1        0.0248
     40 H           3.9472    0.5395   -1.1590 H       1  LIG1        0.0248
     41 H           4.4003    3.3128   -3.9774 H       1  LIG1        0.0248
     42 H           3.0466    3.0063   -3.2734 H       1  LIG1        0.0248
     43 H           3.6118    1.9960   -4.3156 H       1  LIG1        0.0248
     44 H           7.0919   -1.4124   -3.8550 H       1  LIG1        0.0248
     45 H           8.2946   -0.4585   -3.5333 H       1  LIG1        0.0248
     46 H           7.1840    0.0074   -4.5204 H       1  LIG1        0.0248
     47 H           8.4396    3.6046    7.5615 H       1  LIG1        0.0248
     48 H           8.5073    4.0680    6.0905 H       1  LIG1        0.0248
     49 H           7.8420    2.6924    6.4507 H       1  LIG1        0.0248
     50 H           6.2596    1.3511    5.2284 H       1  LIG1        0.0248
     51 H           5.1267    0.4193    5.7715 H       1  LIG1        0.0248
     52 H           6.2288    0.9735    6.7242 H       1  LIG1        0.0248
     53 H           3.6380    1.1697    7.3553 H       1  LIG1        0.0248
     54 H           2.8819    1.8366    6.1729 H       1  LIG1        0.0248
     55 H           3.1937    2.6777    7.4405 H       1  LIG1        0.0248
     56 H           6.1224    6.0224    7.7994 H       1  LIG1        0.0248
     57 H           7.6196    5.6276    8.0124 H       1  LIG1        0.0248
     58 H           6.5000    4.8944    8.8112 H       1  LIG1        0.0248
     59 H           6.9393    5.4608    5.2394 H       1  LIG1        0.0319
     60 H           5.4723    5.5785    5.7495 H       1  LIG1        0.0319
     61 H           6.0313    3.3741   -2.5654 H       1  LIG1        0.0319
     62 H           5.0961    3.4550   -1.3363 H       1  LIG1        0.0319
     63 H           7.8407    1.8023   -2.6232 H       1  LIG1        0.0319
     64 H           8.1198    0.8484   -1.4257 H       1  LIG1        0.0319
     65 H           4.3084    2.6139    4.2977 H       1  LIG1        0.0319
     66 H           3.8490    3.8498    5.1377 H       1  LIG1        0.0319
     67 H           6.2303    1.6797   -0.3740 H       1  LIG1        0.0734
     68 H           6.4458    3.4550    4.2234 H       1  LIG1        0.0734
@<TRIPOS>BOND
     1    46    33    1
     2    43    32    1
     3    41    32    1
     4     3     9    1
     5    44    33    1
     6    33    45    1
     7    33    21    1
     8    32    42    1
     9    32    14    1
    10     9    21    1
    11     9    14    1
    12    63    22    1
    13    21    22    1
    14    21    30    1
    15    61    20    1
    16    14    20    1
    17    14    31    1
    18    22    64    1
    19    22    16    1
    20    38    31    1
    21    20    62    1
    22    20    16    1
    23     2    13    1
    24    37    30    1
    25    30    36    1
    26    30    35    1
    27    31    40    1
    28    31    39    1
    29    16     7    1
    30    16    67    1
    31     7    17    1
    32    13    17    2
    33    13    29    1
    34    17    24    1
    35     8    29    2
    36    29    18    1
    37    24     6    2
    38    24    11    1
    39    18    11    2
    40    18     1    1
    41    11     5    1
    42     5    19    1
    43    68    19    1
    44    65    25    1
    45    19    25    1
    46    19    15    1
    47    25    66    1
    48    25    12    1
    49    50    27    1
    50    59    15    1
    51    15    60    1
    52    15    23    1
    53    51    27    1
    54    27    12    1
    55    27    52    1
    56    48    26    1
    57    54    28    1
    58    12    28    1
    59    12    10    1
    60    49    26    1
    61    26    23    1
    62    26    47    1
    63    23    10    1
    64    23    34    1
    65    28    53    1
    66    28    55    1
    67    10     4    1
    68    56    34    1
    69    34    57    1
    70    34    58    1
