@<TRIPOS>MOLECULE
C32 H20 O2, C H Cl3
 59 65 0 0 0
SMALL
GASTEIGER

@<TRIPOS>ATOM
      1 CL         10.9542    9.9784    3.1494 Cl      1  LIG1       -0.0870
      2 CL         10.4061    8.6498    5.5778 Cl      1  LIG1       -0.0870
      3 CL         11.0216    7.0770    3.2796 Cl      1  LIG1       -0.0870
      4 O          14.3107    2.1822    3.4205 O.2     2  LIG2       -0.2917
      5 O           9.6067    2.8942    5.9272 O.2     2  LIG2       -0.2917
      6 C           9.6278    1.4761    3.4073 C.3     2  LIG2        0.0203
      7 C           9.9038    2.6365    2.4758 C.ar    2  LIG2       -0.0349
      8 C           9.0914    3.6923    2.2142 C.ar    2  LIG2       -0.0499
      9 C           9.4954    4.7027    1.3077 C.ar    2  LIG2       -0.0170
     10 C           8.6756    5.7938    0.9977 C.ar    2  LIG2       -0.0463
     11 C           9.0987    6.8057    0.1484 C.ar    2  LIG2       -0.0173
     12 C           8.3004    7.9534   -0.1234 C.ar    2  LIG2       -0.0540
     13 C           8.7471    8.9497   -0.9139 C.ar    2  LIG2       -0.0612
     14 C          10.0169    8.8761   -1.4987 C.ar    2  LIG2       -0.0612
     15 C          10.8171    7.8048   -1.2959 C.ar    2  LIG2       -0.0540
     16 C          10.3926    6.7264   -0.4525 C.ar    2  LIG2       -0.0173
     17 C          11.2002    5.6127   -0.1822 C.ar    2  LIG2       -0.0463
     18 C          10.7864    4.6107    0.6788 C.ar    2  LIG2       -0.0170
     19 C          11.5998    3.4729    0.9668 C.ar    2  LIG2       -0.0499
     20 C          11.1686    2.5091    1.8014 C.ar    2  LIG2       -0.0349
     21 C          11.8924    1.2355    2.1878 C.3     2  LIG2        0.0203
     22 C          10.9508    0.0863    1.9233 C.ar    2  LIG2       -0.0355
     23 C          11.1774   -0.9949    1.0976 C.ar    2  LIG2       -0.0577
     24 C          10.1814   -1.9445    0.9227 C.ar    2  LIG2       -0.0615
     25 C           8.9818   -1.8129    1.5957 C.ar    2  LIG2       -0.0615
     26 C           8.7545   -0.7515    2.4390 C.ar    2  LIG2       -0.0577
     27 C           9.7293    0.2137    2.6036 C.ar    2  LIG2       -0.0355
     28 C          10.7934    1.4831    4.4520 C.3     2  LIG2        0.0436
     29 C          12.1503    1.3006    3.7173 C.3     2  LIG2        0.0436
     30 C          13.2264    2.3351    3.9583 C.2     2  LIG2        0.1685
     31 C          12.9706    3.5281    4.7973 C.ar    2  LIG2        0.0282
     32 C          13.9377    4.4989    4.9427 C.ar    2  LIG2       -0.0506
     33 C          13.7186    5.6014    5.7112 C.ar    2  LIG2       -0.0611
     34 C          12.5358    5.7599    6.3768 C.ar    2  LIG2       -0.0611
     35 C          11.5589    4.8188    6.2592 C.ar    2  LIG2       -0.0506
     36 C          11.7538    3.6894    5.4687 C.ar    2  LIG2        0.0282
     37 C          10.6548    2.7101    5.3336 C.2     2  LIG2        0.1685
     38 C          11.3174    8.6002    4.1155 C.3     1  LIG1        0.1805
     39 H           8.7595    1.6558    3.9524 H       2  LIG2        0.0404
     40 H           8.2550    3.8069    2.7329 H       2  LIG2        0.0627
     41 H           7.7523    5.8589    1.3811 H       2  LIG2        0.0630
     42 H           7.4464    8.0525    0.2351 H       2  LIG2        0.0624
     43 H           8.1796    9.6800   -1.0432 H       2  LIG2        0.0618
     44 H          10.3447    9.5101   -2.0717 H       2  LIG2        0.0618
     45 H          11.6309    7.7128   -1.6456 H       2  LIG2        0.0624
     46 H          12.0765    5.5759   -0.6612 H       2  LIG2        0.0630
     47 H          12.4788    3.4007    0.5289 H       2  LIG2        0.0627
     48 H          12.7627    1.1520    1.6985 H       2  LIG2        0.0404
     49 H          12.0159   -1.0614    0.6759 H       2  LIG2        0.0621
     50 H          10.3601   -2.7030    0.3526 H       2  LIG2        0.0618
     51 H           8.3694   -2.3775    1.4840 H       2  LIG2        0.0618
     52 H           7.9460   -0.6793    2.9386 H       2  LIG2        0.0621
     53 H          10.6815    0.7501    5.0103 H       2  LIG2        0.0397
     54 H          12.5303    0.4812    3.9818 H       2  LIG2        0.0397
     55 H          14.6798    4.2881    4.4961 H       2  LIG2        0.0625
     56 H          14.3155    6.2552    5.8331 H       2  LIG2        0.0618
     57 H          12.3960    6.4675    7.0086 H       2  LIG2        0.0618
     58 H          10.7333    4.9107    6.6706 H       2  LIG2        0.0625
     59 H          12.1980    8.5620    4.2463 H       1  LIG1        0.0806
@<TRIPOS>BOND
     1    44    14    1
     2    45    15    1
     3    14    15   ar
     4    14    13   ar
     5    15    16   ar
     6    43    13    1
     7    13    12   ar
     8    46    17    1
     9    16    17   ar
    10    16    11   ar
    11    17    18   ar
    12    12    11   ar
    13    12    42    1
    14    11    10   ar
    15    50    24    1
    16    47    19    1
    17    49    23    1
    18    18    19   ar
    19    18     9   ar
    20    24    23   ar
    21    24    25   ar
    22    19    20   ar
    23    10     9   ar
    24    10    41    1
    25    23    22   ar
    26     9     8   ar
    27    51    25    1
    28    25    26   ar
    29    48    21    1
    30    20    21    1
    31    20     7   ar
    32    22    21    1
    33    22    27   ar
    34    21    29    1
    35     8     7   ar
    36     8    40    1
    37    26    27   ar
    38    26    52    1
    39     7     6    1
    40    27     6    1
    41     1    38    1
    42     3    38    1
    43     6    39    1
    44     6    28    1
    45     4    30    2
    46    29    30    1
    47    29    54    1
    48    29    28    1
    49    30    31    1
    50    38    59    1
    51    38     2    1
    52    28    53    1
    53    28    37    1
    54    55    32    1
    55    31    32   ar
    56    31    36   ar
    57    32    33   ar
    58    37    36    1
    59    37     5    2
    60    36    35   ar
    61    33    56    1
    62    33    34   ar
    63    35    34   ar
    64    35    58    1
    65    34    57    1
