@<TRIPOS>MOLECULE
C26 H36 N2 O4
 136 142 0 0 0
SMALL
GASTEIGER

@<TRIPOS>ATOM
      1 O           8.7305    9.3523   20.8018 O.3     1  LIG1       -0.4897
      2 O           9.4919    7.6115   23.1032 O.3     1  LIG1       -0.3742
      3 O           9.3846   10.2733   24.4149 O.3     1  LIG1       -0.3742
      4 O           7.8701   12.6866   24.6721 O.3     1  LIG1       -0.4897
      5 O           9.7365    5.8817   14.8626 O.3     2  LIG2       -0.4897
      6 O           7.6768    4.0820   13.5828 O.3     2  LIG2       -0.3742
      7 O           6.9248    6.6091   12.4086 O.3     2  LIG2       -0.3742
      8 O           7.9738    9.0387   11.5603 O.3     2  LIG2       -0.4897
      9 N           7.2884   14.0177   18.6696 N.3     1  LIG1       -0.3078
     10 H           7.2750   13.7901   19.5416 H       1  LIG1        0.1226
     11 N           5.1471   13.7329   20.4444 N.3     1  LIG1       -0.3078
     12 H           4.8745   12.8708   20.4985 H       1  LIG1        0.1226
     13 N          12.2296   10.4322   15.9973 N.3     2  LIG2       -0.3078
     14 H          11.6509   10.2691   15.3117 H       2  LIG2        0.1226
     15 N          12.6929   10.1033   13.2473 N.3     2  LIG2       -0.3078
     16 H          12.8055    9.2363   13.0474 H       2  LIG2        0.1226
     17 C           5.9577   13.7582   18.1288 C.3     1  LIG1        0.0233
     18 H           5.8305   12.7725   18.0216 H       1  LIG1        0.0476
     19 C           5.7955   14.4414   16.7682 C.3     1  LIG1       -0.0361
     20 H           5.9906   15.4078   16.8611 H       1  LIG1        0.0281
     21 H           6.4475   14.0582   16.1305 H       1  LIG1        0.0281
     22 C           4.3895   14.2624   16.2185 C.3     1  LIG1       -0.0515
     23 H           4.3037   14.7649   15.3705 H       1  LIG1        0.0266
     24 H           4.2344   13.3053   16.0219 H       1  LIG1        0.0266
     25 C           3.3379   14.7515   17.1991 C.3     1  LIG1       -0.0515
     26 H           2.4369   14.5515   16.8408 H       1  LIG1        0.0266
     27 H           3.4157   15.7330   17.3022 H       1  LIG1        0.0266
     28 C           3.5003   14.0851   18.5642 C.3     1  LIG1       -0.0361
     29 H           3.3226   13.1153   18.4808 H       1  LIG1        0.0281
     30 H           2.8401   14.4649   19.1978 H       1  LIG1        0.0281
     31 C           4.9174   14.3005   19.1123 C.3     1  LIG1        0.0233
     32 H           5.0609   15.2876   19.1820 H       1  LIG1        0.0476
     33 C           8.3827   13.2868   18.0098 C.3     1  LIG1        0.0217
     34 H           9.2427   13.5918   18.3948 H       1  LIG1        0.0474
     35 H           8.3852   13.5229   17.0489 H       1  LIG1        0.0474
     36 C           8.3040   11.7794   18.1371 C.ar    1  LIG1       -0.0301
     37 C           7.8829   10.9733   17.0835 C.ar    1  LIG1       -0.0571
     38 H           7.6790   11.3624   16.2413 H       1  LIG1        0.0621
     39 C          13.5720   10.0492   15.5440 C.3     2  LIG2        0.0233
     40 H          13.6474    9.0522   15.5492 H       2  LIG2        0.0476
     41 C          14.6424   10.6355   16.4533 C.3     2  LIG2       -0.0361
     42 H          14.5073   10.3018   17.3746 H       2  LIG2        0.0281
     43 H          14.5542   11.6212   16.4698 H       2  LIG2        0.0281
     44 C          16.0487   10.2607   15.9817 C.3     2  LIG2       -0.0515
     45 H          16.7186   10.6935   16.5693 H       2  LIG2        0.0266
     46 H          16.1689    9.2808   16.0491 H       2  LIG2        0.0266
     47 C          16.2777   10.7019   14.5385 C.3     2  LIG2       -0.0515
     48 H          16.3000   11.6909   14.4973 H       2  LIG2        0.0266
     49 H          17.1552   10.3640   14.2281 H       2  LIG2        0.0266
     50 C          15.1812   10.1834   13.6129 C.3     2  LIG2       -0.0361
     51 H          15.2488    9.1985   13.5450 H       2  LIG2        0.0281
     52 H          15.3136   10.5607   12.7081 H       2  LIG2        0.0281
     53 C          13.7824   10.5612   14.1178 C.3     2  LIG2        0.0233
     54 H          13.7371   11.5599   14.1512 H       2  LIG2        0.0476
     55 C          11.7180    9.6740   17.1516 C.3     2  LIG2        0.0217
     56 H          10.8144   10.0102   17.3724 H       2  LIG2        0.0474
     57 H          12.3023    9.8548   17.9311 H       2  LIG2        0.0474
     58 C          11.6369    8.1716   16.9475 C.ar    2  LIG2       -0.0301
     59 C          12.5027    7.3030   17.6038 C.ar    2  LIG2       -0.0571
     60 H          13.1350    7.6430   18.2251 H       2  LIG2        0.0621
     61 C           7.7598    9.6044   17.2624 C.ar    1  LIG1       -0.0580
     62 H           7.4773    9.0640   16.5331 H       1  LIG1        0.0619
     63 C           8.0397    9.0052   18.4808 C.ar    1  LIG1       -0.0199
     64 H           7.9525    8.0657   18.5916 H       1  LIG1        0.0654
     65 C           8.4519    9.8102   19.5392 C.ar    1  LIG1        0.1209
     66 C           8.5895   11.1817   19.3584 C.ar    1  LIG1       -0.0155
     67 H           8.8843   11.7204   20.0823 H       1  LIG1        0.0657
     68 C           8.1663    8.0934   21.1825 C.3     1  LIG1        0.1128
     69 H           8.6954    7.3505   20.7971 H       1  LIG1        0.0720
     70 H           7.2358    8.0211   20.8514 H       1  LIG1        0.0720
     71 C           8.1908    8.0220   22.6831 C.3     1  LIG1        0.0818
     72 H           7.9769    8.9102   23.0659 H       1  LIG1        0.0594
     73 H           7.5135    7.3749   23.0025 H       1  LIG1        0.0594
     74 C           9.7994    7.9337   24.4618 C.3     1  LIG1        0.0711
     75 H          10.4344    7.2623   24.8167 H       1  LIG1        0.0583
     76 H           8.9705    7.8825   25.0022 H       1  LIG1        0.0583
     77 C          10.3966    9.2985   24.6095 C.3     1  LIG1        0.0711
     78 H          10.7893    9.3976   25.5134 H       1  LIG1        0.0583
     79 H          11.1166    9.4237   23.9413 H       1  LIG1        0.0583
     80 C           9.8884   11.5657   24.0962 C.3     1  LIG1        0.0818
     81 H          10.5969   11.4951   23.4097 H       1  LIG1        0.0594
     82 H          10.2765   11.9884   24.9026 H       1  LIG1        0.0594
     83 C           8.7527   12.3876   23.5805 C.3     1  LIG1        0.1128
     84 H           9.0953   13.2271   23.1835 H       1  LIG1        0.0720
     85 H           8.2647   11.8876   22.8781 H       1  LIG1        0.0720
     86 C           6.6691   13.2725   24.3779 C.ar    1  LIG1        0.1209
     87 C           5.8704   13.5927   25.4781 C.ar    1  LIG1       -0.0199
     88 H           6.1847   13.4246   26.3594 H       1  LIG1        0.0654
     89 C           4.6269   14.1507   25.2856 C.ar    1  LIG1       -0.0580
     90 H           4.0843   14.3649   26.0359 H       1  LIG1        0.0619
     91 C           4.1596   14.4028   23.9969 C.ar    1  LIG1       -0.0571
     92 H           3.2969   14.7792   23.8689 H       1  LIG1        0.0621
     93 C           4.9581   14.1019   22.8978 C.ar    1  LIG1       -0.0301
     94 C           6.2118   13.5330   23.0926 C.ar    1  LIG1       -0.0155
     95 H           6.7574   13.3229   22.3443 H       1  LIG1        0.0657
     96 C           4.4824   14.4817   21.5089 C.3     1  LIG1        0.0217
     97 H           3.5063   14.3246   21.4508 H       1  LIG1        0.0474
     98 H           4.6416   15.4482   21.3694 H       1  LIG1        0.0474
     99 C          12.4432    5.9398   17.3518 C.ar    2  LIG2       -0.0580
    100 H          13.0314    5.3547   17.8157 H       2  LIG2        0.0619
    101 C          11.5428    5.4148   16.4370 C.ar    2  LIG2       -0.0199
    102 H          11.5185    4.4816   16.2617 H       2  LIG2        0.0654
    103 C          10.6759    6.2837   15.7824 C.ar    2  LIG2        0.1209
    104 C          10.7181    7.6453   16.0430 C.ar    2  LIG2       -0.0155
    105 H          10.1127    8.2262   15.5989 H       2  LIG2        0.0657
    106 C           9.9027    4.5700   14.3030 C.3     2  LIG2        0.1128
    107 H           9.6865    3.8807   14.9791 H       2  LIG2        0.0720
    108 H          10.8395    4.4396   14.0110 H       2  LIG2        0.0720
    109 C           8.9778    4.4520   13.1331 C.3     2  LIG2        0.0818
    110 H           8.9319    5.3177   12.6538 H       2  LIG2        0.0594
    111 H           9.3207    3.7690   12.5045 H       2  LIG2        0.0594
    112 C           6.6757    4.2480   12.5821 C.3     2  LIG2        0.0711
    113 H           6.0045    3.5253   12.6651 H       2  LIG2        0.0583
    114 H           7.0913    4.1782   11.6856 H       2  LIG2        0.0583
    115 C           5.9983    5.5707   12.7121 C.3     2  LIG2        0.0711
    116 H           5.2285    5.6152   12.0905 H       2  LIG2        0.0583
    117 H           5.6582    5.6833   13.6355 H       2  LIG2        0.0583
    118 C           6.7528    7.7909   13.1469 C.3     2  LIG2        0.0818
    119 H           6.6501    7.5800   14.1083 H       2  LIG2        0.0594
    120 H           5.9413    8.2682   12.8415 H       2  LIG2        0.0594
    121 C           7.9683    8.6480   12.9320 C.3     2  LIG2        0.1128
    122 H           7.9319    9.4464   13.5156 H       2  LIG2        0.0720
    123 H           8.7892    8.1379   13.1469 H       2  LIG2        0.0720
    124 C           9.1036    9.6283   11.0611 C.ar    2  LIG2        0.1209
    125 C           9.0544    9.9544    9.7075 C.ar    2  LIG2       -0.0199
    126 H           8.2720    9.7775    9.1974 H       2  LIG2        0.0654
    127 C          10.1641   10.5418    9.1123 C.ar    2  LIG2       -0.0580
    128 H          10.1400   10.7624    8.1885 H       2  LIG2        0.0619
    129 C          11.3013   10.8077    9.8495 C.ar    2  LIG2       -0.0571
    130 H          12.0558   11.2035    9.4304 H       2  LIG2        0.0621
    131 C          11.3452   10.4968   11.2079 C.ar    2  LIG2       -0.0301
    132 C          10.2400    9.8964   11.8112 C.ar    2  LIG2       -0.0155
    133 H          10.2656    9.6716   12.7329 H       2  LIG2        0.0657
    134 C          12.5631   10.8743   12.0190 C.3     2  LIG2        0.0217
    135 H          13.3724   10.7372   11.4662 H       2  LIG2        0.0474
    136 H          12.5123   11.8363   12.2466 H       2  LIG2        0.0474
@<TRIPOS>BOND
     1   128   127    1
     2   127   125   ar
     3   127   129   ar
     4   126   125    1
     5   130   129    1
     6   125   124   ar
     7   129   131   ar
     8   124     8    1
     9   124   132   ar
    10   131   132   ar
    11   131   134    1
    12   135   134    1
    13     8   121    1
    14   114   112    1
    15   132   133    1
    16   134   136    1
    17   134    15    1
    18   116   115    1
    19     7   115    1
    20     7   118    1
    21   111   109    1
    22   112   113    1
    23   112   115    1
    24   112     6    1
    25   110   109    1
    26    52    50    1
    27   115   117    1
    28   120   118    1
    29   121   123    1
    30   121   118    1
    31   121   122    1
    32    16    15    1
    33   109     6    1
    34   109   106    1
    35   118   119    1
    36    15    53    1
    37    51    50    1
    38    50    53    1
    39    50    47    1
    40   108   106    1
    41    53    54    1
    42    53    39    1
    43    49    47    1
    44   106     5    1
    45   106   107    1
    46    48    47    1
    47    47    44    1
    48     5   103    1
    49    14    13    1
    50    23    22    1
    51    39    40    1
    52    39    13    1
    53    39    41    1
    54   105   104    1
    55   103   104   ar
    56   103   101   ar
    57    44    46    1
    58    44    41    1
    59    44    45    1
    60    13    55    1
    61    24    22    1
    62   104    58   ar
    63    21    19    1
    64    22    19    1
    65    22    25    1
    66    38    37    1
    67   102   101    1
    68   101    99   ar
    69    41    43    1
    70    41    42    1
    71    62    61    1
    72    19    20    1
    73    19    17    1
    74    26    25    1
    75    58    55    1
    76    58    59   ar
    77    35    33    1
    78    37    61   ar
    79    37    36   ar
    80    55    56    1
    81    55    57    1
    82    25    27    1
    83    25    28    1
    84    61    63   ar
    85    99    59   ar
    86    99   100    1
    87    59    60    1
    88    33    36    1
    89    33    34    1
    90    33     9    1
    91    18    17    1
    92    17     9    1
    93    17    31    1
    94    36    66   ar
    95    29    28    1
    96    63    64    1
    97    63    65   ar
    98    28    31    1
    99    28    30    1
   100     9    10    1
   101    31    32    1
   102    31    11    1
   103    66    65   ar
   104    66    67    1
   105    65     1    1
   106    11    12    1
   107    11    96    1
   108    69    68    1
   109     1    68    1
   110    70    68    1
   111    68    71    1
   112    98    96    1
   113    97    96    1
   114    96    93    1
   115    95    94    1
   116    71    73    1
   117    71    72    1
   118    71     2    1
   119    85    83    1
   120    93    94   ar
   121    93    91   ar
   122    94    86   ar
   123     2    74    1
   124    84    83    1
   125    81    80    1
   126    83    80    1
   127    83     4    1
   128    92    91    1
   129    79    77    1
   130    91    89   ar
   131    80     3    1
   132    80    82    1
   133    86     4    1
   134    86    87   ar
   135     3    77    1
   136    74    77    1
   137    74    75    1
   138    74    76    1
   139    77    78    1
   140    89    87   ar
   141    89    90    1
   142    87    88    1
