@<TRIPOS>MOLECULE
?
 86 92 0 0 0
SMALL
GASTEIGER

@<TRIPOS>ATOM
      1 O          -1.9840    7.2142    4.7874 O.3     1  LIG1       -0.4950
      2 O           3.1591    3.7924   10.9560 O.3     1  LIG1       -0.4608
      3 O           2.9787    2.1583    9.5060 O.2     1  LIG1       -0.2449
      4 O          -1.4036    2.8521    6.5159 O.3     1  LIG1       -0.4944
      5 O          -5.2837   12.3493   13.0666 O.3     2  LIG2       -0.4950
      6 O          -3.5248    8.0720   12.1326 O.3     2  LIG2       -0.4944
      7 O           2.7921    9.2868   11.8573 O.3     2  LIG2       -0.4608
      8 O           1.8098    7.6022   12.8655 O.2     2  LIG2       -0.2449
      9 C          -1.6481    8.6098    4.7831 C.3     1  LIG1        0.0788
     10 H          -1.8032    9.0509    5.6872 H       1  LIG1        0.0660
     11 H          -2.2561    8.9933    4.1227 H       1  LIG1        0.0660
     12 H          -0.6824    8.7172    4.5472 H       1  LIG1        0.0660
     13 C          -1.2817    6.4226    5.6442 C.ar    1  LIG1        0.1242
     14 C          -0.2703    6.8597    6.4609 C.ar    1  LIG1       -0.0120
     15 H           0.0302    7.7600    6.4630 H       1  LIG1        0.0660
     16 C           0.3891    5.9375    7.3098 C.ar    1  LIG1       -0.0101
     17 C           0.0517    4.5451    7.3115 C.ar    1  LIG1        0.0325
     18 C           0.7974    3.6502    8.1395 C.ar    1  LIG1        0.0075
     19 C           0.5348    2.1743    8.1569 C.ar    1  LIG1       -0.0164
     20 C           1.0239    1.3481    7.1470 C.ar    1  LIG1       -0.0540
     21 H           1.5362    1.7268    6.3770 H       1  LIG1        0.0624
     22 C           0.8229   -0.0238    7.2002 C.ar    1  LIG1       -0.0612
     23 H           1.2174   -0.5911    6.4831 H       1  LIG1        0.0618
     24 C           0.1170   -0.5784    8.2657 C.ar    1  LIG1       -0.0617
     25 H          -0.0322   -1.5283    8.3000 H       1  LIG1        0.0618
     26 C           1.3761    6.4109    8.2059 C.ar    1  LIG1       -0.0497
     27 H           1.5502    7.3691    8.2484 H       1  LIG1        0.0627
     28 C           2.0310    5.5675    9.0563 C.ar    1  LIG1       -0.0290
     29 C           2.9987    6.0496   10.1031 C.3     1  LIG1        0.0076
     30 H           2.7970    6.9819   10.3578 H       1  LIG1        0.0346
     31 H           3.9216    5.9695    9.7756 H       1  LIG1        0.0346
     32 C           2.8269    5.1632   11.3174 C.3     1  LIG1        0.0968
     33 H           3.4650    5.3835   12.0284 H       1  LIG1        0.0701
     34 H           1.9062    5.2151   11.6627 H       1  LIG1        0.0701
     35 C           2.6496    3.2844    9.8094 C.2     1  LIG1        0.3401
     36 C           1.7719    4.1704    8.9920 C.ar    1  LIG1        0.0707
     37 C          -1.0463    4.1577    6.4571 C.ar    1  LIG1        0.1318
     38 C          -2.5282    2.4257    5.7508 C.3     1  LIG1        0.0788
     39 H          -3.3439    2.9463    6.0199 H       1  LIG1        0.0660
     40 H          -2.6015    1.4906    5.9281 H       1  LIG1        0.0660
     41 H          -2.3412    2.5416    4.7752 H       1  LIG1        0.0660
     42 C          -1.6812    5.0655    5.6525 C.ar    1  LIG1        0.0224
     43 H          -2.4012    4.8275    5.0477 H       1  LIG1        0.0691
     44 C          -0.1713    1.6105    9.2176 C.ar    1  LIG1       -0.0540
     45 H          -0.5194    2.1584    9.9304 H       1  LIG1        0.0624
     46 C          -0.3866    0.2404    9.2669 C.ar    1  LIG1       -0.0612
     47 H          -0.8610   -0.1520   10.0294 H       1  LIG1        0.0618
     48 C          -5.1147   13.7617   13.1909 C.3     2  LIG2        0.0788
     49 H          -4.5479   13.9972   13.9757 H       2  LIG2        0.0660
     50 H          -6.0151   14.1326   13.2932 H       2  LIG2        0.0660
     51 H          -4.6568   14.1306   12.3467 H       2  LIG2        0.0660
     52 C          -4.1499   11.6024   12.9355 C.ar    2  LIG2        0.1242
     53 C          -2.8767   12.0912   13.0188 C.ar    2  LIG2       -0.0120
     54 H          -2.6869   12.9943   13.2143 H       2  LIG2        0.0660
     55 C          -1.7766   11.2128   12.8318 C.ar    2  LIG2       -0.0101
     56 C          -1.9653    9.8165   12.5995 C.ar    2  LIG2        0.0325
     57 C          -0.8175    8.9677   12.4759 C.ar    2  LIG2        0.0075
     58 C          -0.9621    7.4927   12.3083 C.ar    2  LIG2       -0.0164
     59 C          -0.7409    6.9199   11.0586 C.ar    2  LIG2       -0.0540
     60 H          -0.4425    7.4762   10.3176 H       2  LIG2        0.0624
     61 C          -0.9421    5.5542   10.8621 C.ar    2  LIG2       -0.0612
     62 H          -0.8042    5.1722    9.9864 H       2  LIG2        0.0618
     63 C          -1.3457    4.7540   11.9211 C.ar    2  LIG2       -0.0617
     64 H          -1.5285    3.8170   11.7602 H       2  LIG2        0.0618
     65 C          -3.3406    9.3739   12.4729 C.ar    2  LIG2        0.1318
     66 C          -4.8521    7.6323   11.8237 C.3     2  LIG2        0.0788
     67 H          -5.4269    7.6949   12.6077 H       2  LIG2        0.0660
     68 H          -4.7571    6.6921   11.6154 H       2  LIG2        0.0660
     69 H          -5.2366    8.1487   11.0647 H       2  LIG2        0.0660
     70 C          -4.3878   10.2384   12.6557 C.ar    2  LIG2        0.0224
     71 H          -5.3351    9.8997   12.6149 H       2  LIG2        0.0691
     72 C          -1.5320    5.3118   13.1826 C.ar    2  LIG2       -0.0612
     73 H          -1.7863    4.7688   13.9270 H       2  LIG2        0.0618
     74 C          -1.3436    6.6758   13.3709 C.ar    2  LIG2       -0.0540
     75 H          -1.5154    7.0381   14.2396 H       2  LIG2        0.0624
     76 C           0.4525    9.5530   12.4756 C.ar    2  LIG2        0.0707
     77 C           0.6270   10.9561   12.5995 C.ar    2  LIG2       -0.0290
     78 C           2.0181   11.5024   12.4209 C.3     2  LIG2        0.0076
     79 H           2.5180   11.4415   13.2602 H       2  LIG2        0.0346
     80 H           1.9943   12.4155   12.1316 H       2  LIG2        0.0346
     81 C           2.6952   10.6635   11.3644 C.3     2  LIG2        0.0968
     82 H           2.1590   10.6419   10.5499 H       2  LIG2        0.0701
     83 H           3.6301   10.9315   11.1780 H       2  LIG2        0.0701
     84 C           1.6932    8.7204   12.4213 C.2     2  LIG2        0.3401
     85 C          -0.4630   11.7472   12.8205 C.ar    2  LIG2       -0.0497
     86 H          -0.3685   12.6944   12.9418 H       2  LIG2        0.0627
@<TRIPOS>BOND
     1    11     9    1
     2    12     9    1
     3    41    38    1
     4     9     1    1
     5     9    10    1
     6     1    13    1
     7    43    42    1
     8    13    42   ar
     9    13    14   ar
    10    42    37   ar
    11    38    40    1
    12    38    39    1
    13    38     4    1
    14    21    20    1
    15    37     4    1
    16    37    17   ar
    17    14    15    1
    18    14    16   ar
    19    23    22    1
    20    20    22   ar
    21    20    19   ar
    22    22    24   ar
    23    16    17   ar
    24    16    26   ar
    25    17    18   ar
    26    18    19    1
    27    18    36   ar
    28    19    44   ar
    29    26    27    1
    30    26    28   ar
    31    24    25    1
    32    24    46   ar
    33    36    28   ar
    34    36    35    1
    35    28    29    1
    36    44    46   ar
    37    44    45    1
    38    46    47    1
    39     3    35    2
    40    31    29    1
    41    35     2    1
    42    62    61    1
    43    29    30    1
    44    29    32    1
    45    60    59    1
    46    82    81    1
    47    61    59   ar
    48    61    63   ar
    49     2    32    1
    50    59    58   ar
    51    69    66    1
    52    83    81    1
    53    32    34    1
    54    32    33    1
    55    81     7    1
    56    81    78    1
    57    68    66    1
    58    64    63    1
    59    66     6    1
    60    66    67    1
    61     7    84    1
    62    63    72   ar
    63    80    78    1
    64     6    65    1
    65    58    57    1
    66    58    74   ar
    67    51    48    1
    68    78    77    1
    69    78    79    1
    70    84    76    1
    71    84     8    2
    72    65    56   ar
    73    65    70   ar
    74    76    57   ar
    75    76    77   ar
    76    57    56   ar
    77    56    55   ar
    78    77    85   ar
    79    71    70    1
    80    70    52   ar
    81    85    55   ar
    82    85    86    1
    83    55    53   ar
    84    52    53   ar
    85    52     5    1
    86    53    54    1
    87     5    48    1
    88    72    74   ar
    89    72    73    1
    90    48    50    1
    91    48    49    1
    92    74    75    1
