@<TRIPOS>MOLECULE
Pyrroloquinoline
 35 38 0 0 0
SMALL
GASTEIGER

@<TRIPOS>ATOM
      1 C           6.9225    2.5268    2.5745 C.ar    1  LIG1        0.0104
      2 H           6.1155    3.0259    2.6298 H       1  LIG1        0.0813
      3 C           7.0461    1.1782    2.7700 C.ar    1  LIG1       -0.0432
      4 H           6.3344    0.5848    2.9796 H       1  LIG1        0.0633
      5 C           8.3792    0.8152    2.6149 C.ar    1  LIG1       -0.0358
      6 H           8.7424   -0.0578    2.7057 H       1  LIG1        0.0639
      7 C           9.0856    1.9841    2.2980 C.ar    1  LIG1        0.0553
      8 C          10.4600    2.2397    1.9878 C.ar    1  LIG1        0.0197
      9 C          10.8262    3.5038    1.6635 C.ar    1  LIG1        0.0322
     10 C           9.8729    4.6105    1.6528 C.ar    1  LIG1        0.0126
     11 C           8.5364    4.3462    2.0059 C.ar    1  LIG1        0.0547
     12 C           7.5938    5.3855    2.0687 C.ar    1  LIG1       -0.0372
     13 H           6.6988    5.2034    2.3286 H       1  LIG1        0.0638
     14 C           7.9753    6.6671    1.7510 C.ar    1  LIG1       -0.0598
     15 H           7.3374    7.3706    1.7931 H       1  LIG1        0.0618
     16 C           9.2815    6.9477    1.3681 C.ar    1  LIG1       -0.0610
     17 H           9.5305    7.8343    1.1371 H       1  LIG1        0.0618
     18 C          10.2142    5.9300    1.3268 C.ar    1  LIG1       -0.0516
     19 H          11.1075    6.1294    1.0719 H       1  LIG1        0.0624
     20 C          11.4105    1.0914    2.0645 C.ar    1  LIG1       -0.0149
     21 C          11.9178    0.7190    3.2948 C.ar    1  LIG1       -0.0537
     22 H          11.6289    1.1648    4.0820 H       1  LIG1        0.0624
     23 C          12.8518   -0.3084    3.3790 C.ar    1  LIG1       -0.0583
     24 H          13.2063   -0.5456    4.2281 H       1  LIG1        0.0620
     25 C          13.2711   -0.9885    2.2601 C.ar    1  LIG1       -0.0504
     26 C          12.7367   -0.6255    1.0463 C.ar    1  LIG1       -0.0583
     27 H          13.0042   -1.0904    0.2624 H       1  LIG1        0.0620
     28 C          11.8159    0.4048    0.9407 C.ar    1  LIG1       -0.0537
     29 H          11.4621    0.6375    0.0908 H       1  LIG1        0.0624
     30 C          14.2926   -2.0963    2.3921 C.3     1  LIG1       -0.0397
     31 H          14.5456   -2.1973    3.3336 H       1  LIG1        0.0278
     32 H          15.0872   -1.8734    1.8624 H       1  LIG1        0.0278
     33 H          13.9083   -2.9360    2.0654 H       1  LIG1        0.0278
     34 N           8.1693    3.0346    2.2840 N.ar    1  LIG1       -0.3152
     35 I          12.8306    3.8930    1.2055 I       1  LIG1       -0.0424
@<TRIPOS>BOND
     1    29    28    1
     2    27    26    1
     3    28    26   ar
     4    28    20   ar
     5    26    25   ar
     6    19    18    1
     7    17    16    1
     8    35     9    1
     9    18    16   ar
    10    18    10   ar
    11    16    14   ar
    12    10     9   ar
    13    10    11   ar
    14     9     8   ar
    15    14    15    1
    16    14    12   ar
    17    32    30    1
    18     8    20    1
    19     8     7   ar
    20    11    12   ar
    21    11    34   ar
    22    20    21   ar
    23    33    30    1
    24    12    13    1
    25    25    30    1
    26    25    23   ar
    27    34     7   ar
    28    34     1   ar
    29     7     5   ar
    30    30    31    1
    31     1     2    1
    32     1     3   ar
    33     5     6    1
    34     5     3   ar
    35     3     4    1
    36    21    23   ar
    37    21    22    1
    38    23    24    1
