@<TRIPOS>MOLECULE
(3S,7R)-5,6-dehydro-de-O-methyl-centrolobine
 42 44 0 0 0
SMALL
GASTEIGER

@<TRIPOS>ATOM
      1 C           2.4951   11.7181    3.2622 C.3     1  LIG1       -0.0253
      2 H           2.5520   12.6497    2.9975 H       1  LIG1        0.0314
      3 H           1.8660   11.6592    3.9988 H       1  LIG1        0.0314
      4 C           1.9553   10.9123    2.0941 C.3     1  LIG1       -0.0223
      5 H           1.9671    9.9738    2.3375 H       1  LIG1        0.0293
      6 H           1.0297   11.1645    1.9479 H       1  LIG1        0.0293
      7 C           2.7043   11.0781    0.7972 C.3     1  LIG1        0.0636
      8 H           3.6612   10.9417    0.9611 H       1  LIG1        0.0599
      9 C           2.2440   10.1153   -0.2793 C.3     1  LIG1       -0.0082
     10 H           2.5878    9.2299   -0.0837 H       1  LIG1        0.0332
     11 H           1.2748   10.0682   -0.2721 H       1  LIG1        0.0332
     12 C           2.6984   10.5250   -1.6224 C.2     1  LIG1       -0.0828
     13 H           2.6276    9.9197   -2.3246 H       1  LIG1        0.0571
     14 C           3.2023   11.7225   -1.8595 C.2     1  LIG1       -0.0551
     15 H           3.5156   11.9121   -2.7142 H       1  LIG1        0.0598
     16 C           3.2896   12.7835   -0.8126 C.3     1  LIG1        0.1022
     17 H           2.8933   13.5937   -1.1961 H       1  LIG1        0.0691
     18 C           4.7010   13.1414   -0.3926 C.ar    1  LIG1       -0.0148
     19 C           5.8016   12.3776   -0.7415 C.ar    1  LIG1       -0.0524
     20 H           5.6856   11.6352   -1.2879 H       1  LIG1        0.0622
     21 C           7.0728   12.6969   -0.2923 C.ar    1  LIG1       -0.0198
     22 H           7.8023   12.1802   -0.5490 H       1  LIG1        0.0654
     23 C           7.2525   13.7856    0.5366 C.ar    1  LIG1        0.1169
     24 C           6.1690   14.5910    0.8593 C.ar    1  LIG1       -0.0198
     25 H           6.2896   15.3446    1.3909 H       1  LIG1        0.0654
     26 C           4.9121   14.2689    0.3896 C.ar    1  LIG1       -0.0524
     27 H           4.1920   14.8184    0.6005 H       1  LIG1        0.0622
     28 C           3.8510   11.2693    3.7474 C.ar    1  LIG1       -0.0471
     29 C           5.0208   11.9246    3.4027 C.ar    1  LIG1       -0.0551
     30 H           4.9734   12.6837    2.8671 H       1  LIG1        0.0621
     31 C           6.2578   11.4803    3.8335 C.ar    1  LIG1       -0.0199
     32 H           7.0305   11.9323    3.5803 H       1  LIG1        0.0654
     33 C           6.3415   10.3649    4.6400 C.ar    1  LIG1        0.1169
     34 C           5.1934    9.6938    4.9935 C.ar    1  LIG1       -0.0199
     35 H           5.2440    8.9391    5.5346 H       1  LIG1        0.0654
     36 C           3.9703   10.1401    4.5462 C.ar    1  LIG1       -0.0551
     37 H           3.2029    9.6717    4.7860 H       1  LIG1        0.0621
     38 O           2.4909   12.4332    0.3448 O.3     1  LIG1       -0.3644
     39 O           8.4716   14.1283    1.0615 O.3     1  LIG1       -0.5068
     40 H           9.0795   13.5535    0.7631 H       1  LIG1        0.2921
     41 O           7.5824    9.9385    5.0436 O.3     1  LIG1       -0.5068
     42 H           7.4164    9.2677    5.6441 H       1  LIG1        0.2921
@<TRIPOS>BOND
     1    15    14    1
     2    13    12    1
     3    14    12    2
     4    14    16    1
     5    12     9    1
     6    20    19    1
     7    17    16    1
     8    16    18    1
     9    16    38    1
    10    19    18   ar
    11    19    21   ar
    12    22    21    1
    13    18    26   ar
    14    21    23   ar
    15     9    11    1
    16     9    10    1
    17     9     7    1
    18    38     7    1
    19    26    27    1
    20    26    24   ar
    21    23    24   ar
    22    23    39    1
    23    40    39    1
    24     7     8    1
    25     7     4    1
    26    24    25    1
    27     6     4    1
    28     4     5    1
    29     4     1    1
    30    30    29    1
    31     2     1    1
    32     1    28    1
    33     1     3    1
    34    29    28   ar
    35    29    31   ar
    36    32    31    1
    37    28    36   ar
    38    31    33   ar
    39    36    37    1
    40    36    34   ar
    41    33    34   ar
    42    33    41    1
    43    34    35    1
    44    41    42    1
