@<TRIPOS>MOLECULE
C15 H9 I2 N
 27 29 0 0 0
SMALL
GASTEIGER

@<TRIPOS>ATOM
      1 I           5.3572    2.3658    1.6307 I       1  LIG1       -0.0212
      2 I           0.0498    0.5834    3.9878 I       1  LIG1       -0.0424
      3 N           4.9537    0.7753    4.0365 N.ar    1  LIG1       -0.2402
      4 C           4.2420    1.2897    3.0756 C.ar    1  LIG1        0.1109
      5 C           2.8193    1.2203    2.9468 C.ar    1  LIG1        0.0273
      6 C           2.1548    0.5705    3.9745 C.ar    1  LIG1        0.0327
      7 C           2.8775   -0.0533    5.0398 C.ar    1  LIG1        0.0141
      8 C           2.2854   -0.8052    6.0872 C.ar    1  LIG1       -0.0516
      9 C           3.0531   -1.3631    7.0698 C.ar    1  LIG1       -0.0610
     10 C           4.4509   -1.1957    7.0651 C.ar    1  LIG1       -0.0597
     11 C           5.0628   -0.4886    6.0619 C.ar    1  LIG1       -0.0357
     12 C           4.2904    0.0882    5.0229 C.ar    1  LIG1        0.0732
     13 C           2.1109    1.7898    1.7649 C.ar    1  LIG1       -0.0144
     14 C           1.6496    3.1045    1.7771 C.ar    1  LIG1       -0.0539
     15 C           0.9883    3.6171    0.6685 C.ar    1  LIG1       -0.0612
     16 C           0.7632    2.8299   -0.4466 C.ar    1  LIG1       -0.0617
     17 C           1.2084    1.5143   -0.4541 C.ar    1  LIG1       -0.0612
     18 C           1.8890    1.0014    0.6460 C.ar    1  LIG1       -0.0539
     19 H           1.3431   -0.9214    6.1061 H       1  LIG1        0.0624
     20 H           2.6412   -1.8685    7.7609 H       1  LIG1        0.0618
     21 H           4.9737   -1.5746    7.7618 H       1  LIG1        0.0618
     22 H           6.0076   -0.3849    6.0637 H       1  LIG1        0.0639
     23 H           1.7876    3.6497    2.5425 H       1  LIG1        0.0624
     24 H           0.6861    4.5183    0.6770 H       1  LIG1        0.0618
     25 H           0.3095    3.1862   -1.2017 H       1  LIG1        0.0618
     26 H           1.0479    0.9632   -1.2111 H       1  LIG1        0.0618
     27 H           2.2039    0.1057    0.6300 H       1  LIG1        0.0624
@<TRIPOS>BOND
     1    26    17    1
     2    25    16    1
     3    17    16   ar
     4    17    18   ar
     5    16    15   ar
     6    27    18    1
     7    18    13   ar
     8    15    24    1
     9    15    14   ar
    10     1     4    1
    11    13    14   ar
    12    13     5    1
    13    14    23    1
    14     5     4   ar
    15     5     6   ar
    16     4     3   ar
    17     6     2    1
    18     6     7   ar
    19     3    12   ar
    20    12     7   ar
    21    12    11   ar
    22     7     8   ar
    23    11    22    1
    24    11    10   ar
    25     8    19    1
    26     8     9   ar
    27    10     9   ar
    28    10    21    1
    29     9    20    1
