@<TRIPOS>MOLECULE
?
 24 20 0 0 0
SMALL
GASTEIGER

@<TRIPOS>ATOM
      1 O          -0.2534   -1.2893    4.5508 O.3     1  LIG1       -0.4775
      2 H          -0.7850   -1.4227    3.9278 H       1  LIG1        0.2954
      3 O          -1.4903    0.5461    4.8432 O.2     1  LIG1       -0.2458
      4 N           2.4360    2.4795   10.3257 N.pl3   1  LIG1       -0.3269
      5 H           2.8244    2.6745   11.0439 H       1  LIG1        0.1510
      6 C          -0.5653   -0.1508    5.1645 C.2     1  LIG1        0.3293
      7 C           0.3577    0.1453    6.2849 C.2     1  LIG1        0.0196
      8 H           1.0338   -0.4672    6.5121 H       1  LIG1        0.0686
      9 C           0.2304    1.2737    6.9656 C.2     1  LIG1       -0.0622
     10 H          -0.4397    1.8701    6.6852 H       1  LIG1        0.0586
     11 C           2.7336    1.2965    9.7756 C.2     1  LIG1       -0.0095
     12 H           3.4068    0.7578   10.1502 H       1  LIG1        0.0778
     13 C           2.0532    0.8724    8.6628 C.2     1  LIG1       -0.0551
     14 H           2.2636    0.0461    8.2664 H       1  LIG1        0.0597
     15 C           1.0443    1.6762    8.1198 C.3     1  LIG1        0.0443
     16 C           0.7772    2.9031    8.7314 C.2     1  LIG1       -0.0551
     17 H           0.1107    3.4672    8.3830 H       1  LIG1        0.0597
     18 C           1.4893    3.2855    9.8443 C.2     1  LIG1       -0.0095
     19 H           1.3103    4.1082   10.2621 H       1  LIG1        0.0778
     20 CL          4.6257    3.0376   13.2171 Cl      1  LIG1        0.1011
     21 O           5.2288    4.3241   13.1018 O.3     1  LIG1       -0.1011
     22 O           4.9977    2.4381   14.4724 O.3     2  HOH2        0.0000
     23 O           5.0552    2.1729   12.1551 O.3     3  HOH3        0.0000
     24 O           3.1943    3.1555   13.1311 O.3     4  HOH4        0.0000
@<TRIPOS>BOND
     1     2     1    1
     2     1     6    1
     3     3     6    2
     4     6     7    1
     5     7     8    1
     6     7     9    2
     7    10     9    1
     8     9    15    1
     9    15    13    1
    10    15    16    1
    11    14    13    1
    12    17    16    1
    13    13    11    2
    14    16    18    2
    15    11    12    1
    16    11     4    1
    17    18    19    1
    18    18     4    1
    19     4     5    1
    20    21    20    1
