@<TRIPOS>MOLECULE
C24 H23 N1 O6
 54 59 0 0 0
SMALL
GASTEIGER

@<TRIPOS>ATOM
      1 N           2.6612    6.5030    7.5366 N.3     1  LIG1       -0.2950
      2 C           6.4530    5.0166    8.5359 C.3     1  LIG1        0.0931
      3 C           5.8084    6.1747    7.8100 C.3     1  LIG1       -0.0142
      4 C           4.6971    6.8244    8.6302 C.3     1  LIG1       -0.0201
      5 C           4.1662    8.1543    8.0324 C.3     1  LIG1       -0.0295
      6 C           2.6579    7.9056    7.9871 C.3     1  LIG1        0.0484
      7 C           2.1001    7.8359    9.4358 C.3     1  LIG1        0.1270
      8 C           2.5654    6.4512    9.9146 C.3     1  LIG1        0.0394
      9 C           3.4123    5.9803    8.6920 C.3     1  LIG1        0.0238
     10 C           1.3497    5.8947    7.2935 C.3     1  LIG1       -0.0120
     11 C           3.2786    6.4082   11.2296 C.ar    1  LIG1       -0.0216
     12 C           3.6645    5.1630   11.7511 C.ar    1  LIG1       -0.0117
     13 C           4.3631    5.1762   12.9356 C.ar    1  LIG1        0.1665
     14 O           4.8173    4.1055   13.6519 O.3     1  LIG1       -0.4526
     15 C           5.5796    4.6665   14.7329 C.3     1  LIG1        0.2332
     16 O           5.3532    6.0675   14.7557 O.3     1  LIG1       -0.4526
     17 C           4.6783    6.3587   13.5928 C.ar    1  LIG1        0.1670
     18 C           4.3207    7.5717   13.1079 C.ar    1  LIG1       -0.0019
     19 C           3.6045    7.5895   11.8886 C.ar    1  LIG1        0.0663
     20 C           3.2511    8.9072   11.3378 C.2     1  LIG1        0.3399
     21 O           2.5498    8.9877   10.1977 O.3     1  LIG1       -0.4556
     22 O           3.5781    9.9527   11.8619 O.2     1  LIG1       -0.2449
     23 O           7.0640    5.5755    9.7367 O.3     1  LIG1       -0.4611
     24 C           7.5998    4.7289   10.6021 C.2     1  LIG1        0.3392
     25 O           7.6694    3.5502   10.3997 O.2     1  LIG1       -0.2450
     26 C           8.0973    5.4002   11.8283 C.ar    1  LIG1        0.0590
     27 C           8.7815    4.6388   12.7761 C.ar    1  LIG1       -0.0478
     28 C           9.2585    5.2396   13.9358 C.ar    1  LIG1       -0.0610
     29 C           9.0607    6.5687   14.1531 C.ar    1  LIG1       -0.0617
     30 C           8.4071    7.3223   13.2163 C.ar    1  LIG1       -0.0610
     31 C           7.9165    6.7529   12.0510 C.ar    1  LIG1       -0.0478
     32 H           7.1898    4.6160    8.0005 H       1  LIG1        0.0697
     33 H           5.8062    4.2992    8.8314 H       1  LIG1        0.0697
     34 H           5.4836    5.8770    6.9302 H       1  LIG1        0.0301
     35 H           6.5023    6.8641    7.5930 H       1  LIG1        0.0301
     36 H           5.0507    6.9815    9.5535 H       1  LIG1        0.0318
     37 H           4.4820    8.2993    7.1241 H       1  LIG1        0.0285
     38 H           4.4735    8.9531    8.6079 H       1  LIG1        0.0285
     39 H           2.1221    8.5151    7.3932 H       1  LIG1        0.0499
     40 H           1.1290    7.9370    9.4091 H       1  LIG1        0.0756
     41 H           1.7232    5.8644    9.9374 H       1  LIG1        0.0401
     42 H           3.5482    4.9859    8.6415 H       1  LIG1        0.0472
     43 H           1.4685    4.9733    7.1340 H       1  LIG1        0.0391
     44 H           0.9337    6.2860    6.4515 H       1  LIG1        0.0391
     45 H           0.7300    6.0462    8.0599 H       1  LIG1        0.0391
     46 H           3.4633    4.3118   11.2767 H       1  LIG1        0.0658
     47 H           5.2375    4.2841   15.5401 H       1  LIG1        0.1166
     48 H           6.5277    4.4179   14.4817 H       1  LIG1        0.1166
     49 H           4.5499    8.3902   13.5459 H       1  LIG1        0.0663
     50 H           8.8536    3.6984   12.5943 H       1  LIG1        0.0626
     51 H           9.7364    4.6577   14.5489 H       1  LIG1        0.0618
     52 H           9.3629    7.0307   14.9941 H       1  LIG1        0.0618
     53 H           8.2085    8.3182   13.4133 H       1  LIG1        0.0618
     54 H           7.4785    7.2655   11.4211 H       1  LIG1        0.0626
@<TRIPOS>BOND
     1    44    10    1
     2    34     3    1
     3    37     5    1
     4    43    10    1
     5    10     1    1
     6    10    45    1
     7    39     6    1
     8     1     6    1
     9     1     9    1
    10    35     3    1
    11     3     2    1
    12     3     4    1
    13     6     5    1
    14     6     7    1
    15    32     2    1
    16     5    38    1
    17     5     4    1
    18     2    33    1
    19     2    23    1
    20     4     9    1
    21     4    36    1
    22    42     9    1
    23     9     8    1
    24    40     7    1
    25     7     8    1
    26     7    21    1
    27    23    24    1
    28     8    41    1
    29     8    11    1
    30    21    20    1
    31    25    24    2
    32    24    26    1
    33    11    12   ar
    34    11    19   ar
    35    46    12    1
    36    20    22    2
    37    20    19    1
    38    54    31    1
    39    12    13   ar
    40    26    31   ar
    41    26    27   ar
    42    19    18   ar
    43    31    30   ar
    44    50    27    1
    45    27    28   ar
    46    13    17   ar
    47    13    14    1
    48    18    49    1
    49    18    17   ar
    50    30    53    1
    51    30    29   ar
    52    17    16    1
    53    14    15    1
    54    28    29   ar
    55    28    51    1
    56    29    52    1
    57    48    15    1
    58    15    16    1
    59    15    47    1
