@<TRIPOS>MOLECULE
?
 50 52 0 0 0
SMALL
GASTEIGER

@<TRIPOS>ATOM
      1 BR         -1.0346    3.9245    3.6731 Br      1  LIG1       -0.0503
      2 CL          0.2380   12.9740    9.6197 Cl      1  LIG1       -0.0835
      3 O          -1.8164    8.3670    8.7889 O.2     1  LIG1       -0.2920
      4 O           0.6944    8.4251   13.2182 O.3     1  LIG1       -0.4625
      5 O          -1.4374    5.7371   12.4859 O.3     1  LIG1       -0.4617
      6 O          -0.7084    6.4677   14.4485 O.2     1  LIG1       -0.2456
      7 O           1.4781    5.2468   12.2942 O.2     1  LIG1       -0.2456
      8 O           2.4997    7.1271   11.6690 O.3     1  LIG1       -0.4617
      9 C          -1.9078    6.8089    6.4786 C.ar    1  LIG1       -0.0502
     10 H          -2.5453    7.4784    6.5825 H       1  LIG1        0.0625
     11 C          -1.9244    6.0273    5.3362 C.ar    1  LIG1       -0.0471
     12 H          -2.5688    6.1604    4.6787 H       1  LIG1        0.0629
     13 C          -0.9684    5.0516    5.1972 C.ar    1  LIG1        0.0179
     14 C           0.0024    4.8385    6.1451 C.ar    1  LIG1       -0.0471
     15 H           0.6448    4.1770    6.0249 H       1  LIG1        0.0629
     16 C           0.0064    5.6260    7.2833 C.ar    1  LIG1       -0.0502
     17 H           0.6614    5.4950    7.9301 H       1  LIG1        0.0625
     18 C          -0.9562    6.6128    7.4751 C.ar    1  LIG1        0.0175
     19 C          -1.0245    7.4454    8.7160 C.2     1  LIG1        0.1639
     20 C          -0.1077    7.1111    9.8556 C.3     1  LIG1        0.0222
     21 H           0.8072    7.2782    9.5815 H       1  LIG1        0.0353
     22 H          -0.1880    6.1644   10.0541 H       1  LIG1        0.0353
     23 C          -0.3933    7.9027   11.1235 C.3     1  LIG1        0.0559
     24 H          -1.3639    7.9067   11.2599 H       1  LIG1        0.0405
     25 C           0.0868    9.3387   11.1897 C.ar    1  LIG1        0.0041
     26 C          -0.0449   10.3845   10.3174 C.ar    1  LIG1       -0.0363
     27 H          -0.4224   10.2644    9.4762 H       1  LIG1        0.0636
     28 C           0.4052   11.6304   10.7292 C.ar    1  LIG1        0.0415
     29 C           0.9706   11.8345   11.9674 C.ar    1  LIG1       -0.0399
     30 H           1.2674   12.6821   12.2091 H       1  LIG1        0.0633
     31 C           1.0969   10.7828   12.8491 C.ar    1  LIG1       -0.0182
     32 H           1.4681   10.9008   13.6944 H       1  LIG1        0.0655
     33 C           0.6563    9.5539   12.4292 C.ar    1  LIG1        0.1266
     34 C           0.2679    7.3133   12.4143 C.3     1  LIG1        0.3078
     35 C          -0.6751    6.4697   13.2677 C.2     1  LIG1        0.3635
     36 C          -2.6368    4.8185   13.1232 C.3     1  LIG1        0.0898
     37 H          -2.7130    4.9135   14.0860 H       1  LIG1        0.0694
     38 H          -3.4965    4.9776   12.7019 H       1  LIG1        0.0694
     39 C          -2.1845    3.8588   12.8221 C.3     1  LIG1       -0.0306
     40 H          -2.7383    3.1353   13.1246 H       1  LIG1        0.0262
     41 H          -1.3114    3.7797   13.2137 H       1  LIG1        0.0262
     42 H          -2.1094    3.8268   11.8661 H       1  LIG1        0.0262
     43 C           1.4947    6.4266   12.1254 C.2     1  LIG1        0.3635
     44 C           3.7185    6.3696   11.3436 C.3     1  LIG1        0.0898
     45 H           3.8684    5.6971   12.0268 H       1  LIG1        0.0694
     46 H           4.4793    6.9720   11.3463 H       1  LIG1        0.0694
     47 C           3.6213    5.7011   10.0028 C.3     1  LIG1       -0.0306
     48 H           4.4277    5.2097    9.8313 H       1  LIG1        0.0262
     49 H           3.5008    6.3666    9.3209 H       1  LIG1        0.0262
     50 H           2.8737    5.0997    9.9987 H       1  LIG1        0.0262
@<TRIPOS>BOND
     1     1    13    1
     2    12    11    1
     3    13    11   ar
     4    13    14   ar
     5    11     9   ar
     6    15    14    1
     7    14    16   ar
     8     9    10    1
     9     9    18   ar
    10    16    18   ar
    11    16    17    1
    12    18    19    1
    13    19     3    2
    14    19    20    1
    15    49    47    1
    16    27    26    1
    17    21    20    1
    18     2    28    1
    19    48    47    1
    20    20    22    1
    21    20    23    1
    22    50    47    1
    23    47    44    1
    24    26    28   ar
    25    26    25   ar
    26    28    29   ar
    27    23    25    1
    28    23    24    1
    29    23    34    1
    30    25    33   ar
    31    44    46    1
    32    44     8    1
    33    44    45    1
    34     8    43    1
    35    42    39    1
    36    29    30    1
    37    29    31   ar
    38    43     7    2
    39    43    34    1
    40    34     4    1
    41    34    35    1
    42    33    31   ar
    43    33     4    1
    44     5    36    1
    45     5    35    1
    46    38    36    1
    47    39    36    1
    48    39    40    1
    49    39    41    1
    50    31    32    1
    51    36    37    1
    52    35     6    2
