@<TRIPOS>MOLECULE
4026095.cif
 100 108 0 0 0
SMALL
GASTEIGER

@<TRIPOS>ATOM
      1 C           9.2828    4.3490    5.7710 C.3     1  LIG1       -0.0016
      2 H           8.7982    3.7827    5.1813 H       1  LIG1        0.0362
      3 H           9.4458    3.8904    6.5874 H       1  LIG1        0.0362
      4 C          10.6299    4.6608    5.1276 C.ar    1  LIG1       -0.0359
      5 C          11.8217    4.7666    5.8482 C.ar    1  LIG1       -0.0359
      6 C          12.9998    5.0371    5.1467 C.ar    1  LIG1       -0.0125
      7 H          13.8158    5.0787    5.6300 H       1  LIG1        0.0658
      8 C          13.0296    5.2467    3.7851 C.ar    1  LIG1        0.1627
      9 C          11.8481    5.1022    3.0537 C.ar    1  LIG1        0.1618
     10 C          10.6793    4.8029    3.7323 C.ar    1  LIG1       -0.0125
     11 H           9.8791    4.6891    3.2337 H       1  LIG1        0.0658
     12 C          10.8421    4.9481    0.8976 C.3     1  LIG1        0.0790
     13 H          10.5545    4.0302    1.0869 H       1  LIG1        0.0660
     14 H          11.0806    5.0272   -0.0503 H       1  LIG1        0.0660
     15 H          10.1126    5.5680    1.1043 H       1  LIG1        0.0660
     16 C          15.0261    6.5612    3.6896 C.3     1  LIG1        0.1148
     17 H          15.8931    6.5913    3.2125 H       1  LIG1        0.0748
     18 H          15.2046    6.3186    4.6321 H       1  LIG1        0.0748
     19 C          14.3832    7.9207    3.6395 C.ar    1  LIG1       -0.0104
     20 C          14.6224    8.7515    2.5597 C.ar    1  LIG1       -0.0551
     21 H          15.2401    8.4832    1.8896 H       1  LIG1        0.0621
     22 C          13.9691    9.9800    2.4419 C.ar    1  LIG1       -0.0570
     23 H          14.1514   10.5390    1.6962 H       1  LIG1        0.0621
     24 C          13.0599   10.3930    3.3964 C.ar    1  LIG1       -0.0333
     25 C          12.8383    9.5690    4.5021 C.ar    1  LIG1       -0.0570
     26 H          12.2297    9.8446    5.1775 H       1  LIG1        0.0621
     27 C          13.4927    8.3579    4.6288 C.ar    1  LIG1       -0.0551
     28 H          13.3373    7.8163    5.3941 H       1  LIG1        0.0621
     29 C          12.2824   11.6856    3.2651 C.3     1  LIG1        0.0247
     30 H          12.4610   12.2625    4.0499 H       1  LIG1        0.0476
     31 H          12.5773   12.1697    2.4524 H       1  LIG1        0.0476
     32 C          11.9247    4.6694    7.3608 C.3     1  LIG1       -0.0016
     33 H          12.7546    4.2708    7.5912 H       1  LIG1        0.0362
     34 H          11.2139    4.1299    7.6859 H       1  LIG1        0.0362
     35 C          10.6499    6.5959    8.4601 C.ar    1  LIG1       -0.0359
     36 C          10.6558    7.9172    8.9423 C.ar    1  LIG1       -0.0125
     37 H           9.8389    8.2976    9.2448 H       1  LIG1        0.0658
     38 C          11.7999    8.6768    8.9922 C.ar    1  LIG1        0.1627
     39 C          13.0131    8.1102    8.5576 C.ar    1  LIG1        0.1618
     40 C          13.0151    6.8133    8.0787 C.ar    1  LIG1       -0.0125
     41 H          13.8356    6.4298    7.7904 H       1  LIG1        0.0658
     42 C          11.8393    6.0446    8.0051 C.ar    1  LIG1       -0.0359
     43 C          15.3508    8.4056    8.1855 C.3     1  LIG1        0.0790
     44 H          15.5861    7.5894    8.6742 H       1  LIG1        0.0660
     45 H          16.0548    9.0768    8.3126 H       1  LIG1        0.0660
     46 H          15.2639    8.2013    7.2314 H       1  LIG1        0.0660
     47 C          10.7225   10.7989    9.4891 C.3     1  LIG1        0.1148
     48 H          10.8709   11.5887   10.0668 H       1  LIG1        0.0748
     49 H           9.9402   10.3041    9.8405 H       1  LIG1        0.0748
     50 C          10.4403   11.2520    8.0826 C.ar    1  LIG1       -0.0104
     51 C          11.1267   12.3466    7.5647 C.ar    1  LIG1       -0.0551
     52 H          11.7219   12.8343    8.1211 H       1  LIG1        0.0621
     53 C          10.9501   12.7331    6.2410 C.ar    1  LIG1       -0.0570
     54 H          11.4179   13.4909    5.9105 H       1  LIG1        0.0621
     55 C          10.1023   12.0316    5.3935 C.ar    1  LIG1       -0.0333
     56 C           9.3982   10.9467    5.9188 C.ar    1  LIG1       -0.0570
     57 H           8.8036   10.4588    5.3612 H       1  LIG1        0.0621
     58 C           9.5537   10.5744    7.2405 C.ar    1  LIG1       -0.0551
     59 H           9.0495    9.8457    7.5834 H       1  LIG1        0.0621
     60 C          10.0032   12.3439    3.9207 C.3     1  LIG1        0.0247
     61 H           9.0644   12.2591    3.6206 H       1  LIG1        0.0476
     62 H          10.3013   13.2732    3.7521 H       1  LIG1        0.0476
     63 C           9.3260    5.8545    8.4578 C.3     1  LIG1       -0.0016
     64 H           9.5044    4.9229    8.4073 H       1  LIG1        0.0362
     65 H           8.8739    6.0470    9.2699 H       1  LIG1        0.0362
     66 C           8.4197    6.2288    7.3061 C.ar    1  LIG1       -0.0359
     67 C           8.4171    5.5657    6.0758 C.ar    1  LIG1       -0.0359
     68 C           7.5332    6.0035    5.0850 C.ar    1  LIG1       -0.0125
     69 H           7.5014    5.5325    4.2607 H       1  LIG1        0.0658
     70 C           6.7006    7.0981    5.2572 C.ar    1  LIG1        0.1627
     71 C           6.6865    7.7393    6.5040 C.ar    1  LIG1        0.1618
     72 C           7.5270    7.2909    7.5024 C.ar    1  LIG1       -0.0125
     73 H           7.4994    7.7166    8.3513 H       1  LIG1        0.0658
     74 C           5.6570    9.3193    7.9610 C.3     1  LIG1        0.0790
     75 H           5.3397    8.6219    8.5717 H       1  LIG1        0.0660
     76 H           5.0134   10.0589    7.9470 H       1  LIG1        0.0660
     77 H           6.5277    9.6486    8.2662 H       1  LIG1        0.0660
     78 C           6.1090    7.3355    2.9220 C.3     1  LIG1        0.1148
     79 H           5.2967    7.5035    2.3828 H       1  LIG1        0.0748
     80 H           6.3696    6.3885    2.7966 H       1  LIG1        0.0748
     81 C           7.2221    8.2299    2.4443 C.ar    1  LIG1       -0.0104
     82 C           8.5670    7.8811    2.6056 C.ar    1  LIG1       -0.0551
     83 H           8.7921    7.0050    2.8953 H       1  LIG1        0.0621
     84 C           9.5729    8.7922    2.3491 C.ar    1  LIG1       -0.0570
     85 H          10.4796    8.5394    2.4795 H       1  LIG1        0.0621
     86 C           9.2733   10.0780    1.9014 C.ar    1  LIG1       -0.0333
     87 C           7.9473   10.3970    1.6583 C.ar    1  LIG1       -0.0570
     88 H           7.7270   11.2495    1.3016 H       1  LIG1        0.0621
     89 C           6.9377    9.4860    1.9290 C.ar    1  LIG1       -0.0551
     90 H           6.0356    9.7266    1.7581 H       1  LIG1        0.0621
     91 C          10.3873   11.0982    1.8240 C.3     1  LIG1        0.0247
     92 H          11.1362   10.7384    1.2861 H       1  LIG1        0.0476
     93 H          10.0588   11.9222    1.3848 H       1  LIG1        0.0476
     94 N          10.8510   11.4063    3.1777 N.3     1  LIG1       -0.2898
     95 O          11.9680    5.2625    1.6950 O.3     1  LIG1       -0.4914
     96 O          14.1839    5.5485    3.0864 O.3     1  LIG1       -0.4837
     97 O          14.1160    8.9130    8.6770 O.3     1  LIG1       -0.4914
     98 O          11.8939    9.9426    9.5277 O.3     1  LIG1       -0.4837
     99 O           5.7875    8.7804    6.6520 O.3     1  LIG1       -0.4914
    100 O           5.8178    7.5744    4.3166 O.3     1  LIG1       -0.4837
@<TRIPOS>BOND
     1    14    12    1
     2    12    13    1
     3    12    15    1
     4    12    95    1
     5    92    91    1
     6    88    87    1
     7    93    91    1
     8    87    86   ar
     9    87    89   ar
    10    95     9    1
    11    23    22    1
    12    90    89    1
    13    91    86    1
    14    91    94    1
    15    21    20    1
    16    86    84   ar
    17    89    81   ar
    18    84    85    1
    19    84    82   ar
    20    79    78    1
    21    22    20   ar
    22    22    24   ar
    23    81    82   ar
    24    81    78    1
    25    31    29    1
    26    20    19   ar
    27    82    83    1
    28    80    78    1
    29    78   100    1
    30     9    10   ar
    31     9     8   ar
    32    96    16    1
    33    96     8    1
    34    94    29    1
    35    94    60    1
    36    17    16    1
    37    11    10    1
    38    29    24    1
    39    29    30    1
    40    24    25   ar
    41    61    60    1
    42    19    16    1
    43    19    27   ar
    44    16    18    1
    45    10     4   ar
    46    62    60    1
    47     8     6   ar
    48    60    55    1
    49    69    68    1
    50   100    70    1
    51    25    27   ar
    52    25    26    1
    53    27    28    1
    54    68    70   ar
    55    68    67   ar
    56     4     1    1
    57     4     5   ar
    58     6     7    1
    59     6     5   ar
    60     2     1    1
    61    70    71   ar
    62    57    56    1
    63    55    56   ar
    64    55    53   ar
    65     1    67    1
    66     1     3    1
    67     5    32    1
    68    54    53    1
    69    56    58   ar
    70    67    66   ar
    71    53    51   ar
    72    71    99    1
    73    71    72   ar
    74    99    74    1
    75    46    43    1
    76    58    59    1
    77    58    50   ar
    78    66    72   ar
    79    66    63    1
    80    32    33    1
    81    32    34    1
    82    32    42    1
    83    72    73    1
    84    51    50   ar
    85    51    52    1
    86    41    40    1
    87    76    74    1
    88    74    77    1
    89    74    75    1
    90    42    40   ar
    91    42    35   ar
    92    40    39   ar
    93    50    47    1
    94    43    45    1
    95    43    44    1
    96    43    97    1
    97    64    63    1
    98    63    35    1
    99    63    65    1
   100    35    36   ar
   101    39    97    1
   102    39    38   ar
   103    36    38   ar
   104    36    37    1
   105    38    98    1
   106    47    98    1
   107    47    49    1
   108    47    48    1
