@<TRIPOS>MOLECULE
C23 H25 N O3 S
 53 57 0 0 0
SMALL
GASTEIGER

@<TRIPOS>ATOM
      1 S          10.4144    3.3583    4.5613 S.2     1  LIG1       -0.0671
      2 O           7.4263    6.8470    5.0653 O.3     1  LIG1       -0.5061
      3 O           3.0444    4.5459    4.0430 O.3     1  LIG1       -0.3419
      4 O           3.4540    3.2312    2.1535 O.3     1  LIG1       -0.3290
      5 N           9.7768    5.7362    5.3879 N.ar    1  LIG1       -0.2389
      6 C          11.0974    5.5205    5.7736 C.ar    1  LIG1        0.0789
      7 C          11.9001    6.4321    6.4748 C.ar    1  LIG1       -0.0352
      8 C          13.1797    6.0660    6.8092 C.ar    1  LIG1       -0.0597
      9 C          13.6887    4.8036    6.4523 C.ar    1  LIG1       -0.0606
     10 C          12.9269    3.8987    5.7441 C.ar    1  LIG1       -0.0459
     11 C          11.6202    4.2643    5.4111 C.ar    1  LIG1        0.0395
     12 C           9.3023    4.6951    4.7451 C.ar    1  LIG1        0.1129
     13 C           7.9388    4.6415    4.2308 C.ar    1  LIG1        0.0486
     14 C           7.4600    3.5042    3.5774 C.ar    1  LIG1       -0.0481
     15 C           6.1610    3.4087    3.1390 C.ar    1  LIG1       -0.0525
     16 C           5.2922    4.4837    3.3372 C.ar    1  LIG1        0.0175
     17 C           5.7447    5.6283    3.9751 C.ar    1  LIG1       -0.0112
     18 C           7.0557    5.7171    4.4332 C.ar    1  LIG1        0.1269
     19 C           1.6949    4.4516    3.5662 C.3     1  LIG1        0.0593
     20 C           1.7028    4.9158    2.0852 C.3     1  LIG1        0.0237
     21 C           3.1425    4.6175    1.6791 C.3     1  LIG1        0.1431
     22 C           3.8544    4.3709    2.9465 C.3     1  LIG1        0.2286
     23 C           0.6331    4.1305    1.3461 C.3     1  LIG1       -0.0549
     24 C           1.4054    6.4315    2.0234 C.3     1  LIG1       -0.0549
     25 C           3.8101    5.0360    0.3583 C.3     1  LIG1       -0.0025
     26 C           2.8205    4.9183   -0.8150 C.3     1  LIG1       -0.0572
     27 C           4.2992    6.4704    0.4426 C.3     1  LIG1       -0.0572
     28 C           4.9857    4.1434    0.0281 C.3     1  LIG1       -0.0572
     29 H          11.5893    7.3191    6.6701 H       1  LIG1        0.0639
     30 H          13.7433    6.6534    7.3755 H       1  LIG1        0.0618
     31 H          14.5723    4.5669    6.7038 H       1  LIG1        0.0618
     32 H          13.2636    2.9858    5.5334 H       1  LIG1        0.0629
     33 H           8.0213    2.7744    3.4594 H       1  LIG1        0.0626
     34 H           5.8535    2.6277    2.6711 H       1  LIG1        0.0622
     35 H           5.1848    6.2885    4.1212 H       1  LIG1        0.0659
     36 H           1.4447    3.4666    3.6266 H       1  LIG1        0.0567
     37 H           1.0963    5.2006    4.1311 H       1  LIG1        0.0567
     38 H           1.0036    3.3310    0.9934 H       1  LIG1        0.0237
     39 H           0.2983    4.6643    0.6351 H       1  LIG1        0.0237
     40 H          -0.0768    3.9135    1.9419 H       1  LIG1        0.0237
     41 H           0.4684    6.5745    1.9658 H       1  LIG1        0.0237
     42 H           1.8300    6.7977    1.2562 H       1  LIG1        0.0237
     43 H           1.7449    6.8550    2.8032 H       1  LIG1        0.0237
     44 H           2.8731    4.0473   -1.1901 H       1  LIG1        0.0236
     45 H           3.0440    5.5618   -1.4782 H       1  LIG1        0.0236
     46 H           1.9363    5.0767   -0.5030 H       1  LIG1        0.0236
     47 H           3.6132    7.0590    0.1532 H       1  LIG1        0.0236
     48 H           5.0660    6.5819   -0.1096 H       1  LIG1        0.0236
     49 H           4.5296    6.6682    1.3433 H       1  LIG1        0.0236
     50 H           5.7833    4.5077    0.3991 H       1  LIG1        0.0236
     51 H           5.0749    4.0824   -0.9147 H       1  LIG1        0.0236
     52 H           4.8375    3.2768    0.3892 H       1  LIG1        0.0236
     53 H           8.2286    6.8556    5.2875 H       1  LIG1        0.2922
@<TRIPOS>BOND
     1    45    26    1
     2    44    26    1
     3    51    28    1
     4    26    46    1
     5    26    25    1
     6    48    27    1
     7    28    25    1
     8    28    52    1
     9    28    50    1
    10    47    27    1
    11    25    27    1
    12    25    21    1
    13    27    49    1
    14    39    23    1
    15    38    23    1
    16    42    24    1
    17    23    40    1
    18    23    20    1
    19    21    20    1
    20    21     4    1
    21    21    22    1
    22    41    24    1
    23    24    20    1
    24    24    43    1
    25    20    19    1
    26     4    22    1
    27    34    15    1
    28    22    16    1
    29    22     3    1
    30    15    16   ar
    31    15    14   ar
    32    16    17   ar
    33    33    14    1
    34    19    36    1
    35    19     3    1
    36    19    37    1
    37    14    13   ar
    38    17    35    1
    39    17    18   ar
    40    13    18   ar
    41    13    12    1
    42    18     2    1
    43     1    12   ar
    44     1    11   ar
    45    12     5   ar
    46     2    53    1
    47     5     6   ar
    48    11    10   ar
    49    11     6   ar
    50    32    10    1
    51    10     9   ar
    52     6     7   ar
    53     9    31    1
    54     9     8   ar
    55     7    29    1
    56     7     8   ar
    57     8    30    1
