@<TRIPOS>MOLECULE
C22 H33 N O5
 61 63 0 0 0
SMALL
GASTEIGER

@<TRIPOS>ATOM
      1 O          -1.4213    3.9898    2.0788 O.3     1  LIG1       -0.2193
      2 O           0.0605    4.0895    2.2876 O.3     1  LIG1       -0.1995
      3 O           0.7281    2.2070    5.8830 O.2     1  LIG1       -0.2261
      4 O           1.9977    3.5496    4.5592 O.3     1  LIG1       -0.4445
      5 O           3.6288    7.2252    1.6736 O.3     1  LIG1       -0.5068
      6 N          -0.2217    3.8492    4.6477 N.am    1  LIG1       -0.2294
      7 C          -1.6669    4.9831    3.1438 C.3     1  LIG1        0.1685
      8 C          -0.1614    4.7961    3.5544 C.3     1  LIG1        0.2339
      9 C          -2.5453    4.2469    4.1937 C.3     1  LIG1        0.0184
     10 C          -1.5528    3.2568    4.8199 C.3     1  LIG1        0.0290
     11 C          -3.6903    3.4230    3.5676 C.3     1  LIG1       -0.0555
     12 C          -3.1460    5.1167    5.2979 C.3     1  LIG1       -0.0555
     13 C          -2.1212    6.3146    2.4816 C.3     1  LIG1       -0.0002
     14 C          -2.0276    7.5170    3.4352 C.3     1  LIG1       -0.0572
     15 C          -1.2698    6.6353    1.2414 C.3     1  LIG1       -0.0572
     16 C          -3.5639    6.1662    1.9831 C.3     1  LIG1       -0.0572
     17 C           0.8569    3.1291    5.0896 C.2     1  LIG1        0.4059
     18 C           3.3142    3.1633    5.1185 C.3     1  LIG1        0.1068
     19 C           3.5489    1.6848    4.9403 C.3     1  LIG1       -0.0253
     20 C           3.3612    3.5759    6.5669 C.3     1  LIG1       -0.0253
     21 C           4.2723    3.9767    4.2744 C.3     1  LIG1       -0.0253
     22 C           0.8973    5.8753    3.7314 C.ar    1  LIG1        0.0148
     23 C           1.7447    6.0935    2.6489 C.ar    1  LIG1       -0.0122
     24 C           2.7791    7.0197    2.7224 C.ar    1  LIG1        0.1173
     25 C           2.9506    7.7664    3.8711 C.ar    1  LIG1       -0.0199
     26 C           2.1115    7.5437    4.9511 C.ar    1  LIG1       -0.0550
     27 C           1.0926    6.5982    4.9210 C.ar    1  LIG1       -0.0425
     28 C           0.2801    6.4215    6.1804 C.3     1  LIG1       -0.0393
     29 H          -1.7250    3.1217    5.8770 H       1  LIG1        0.0473
     30 H          -1.5286    2.4092    4.2804 H       1  LIG1        0.0473
     31 H          -4.0139    2.7580    4.2419 H       1  LIG1        0.0236
     32 H          -3.3811    2.9332    2.7055 H       1  LIG1        0.0236
     33 H          -4.4777    3.9826    3.3039 H       1  LIG1        0.0236
     34 H          -3.8028    5.7283    4.8704 H       1  LIG1        0.0236
     35 H          -3.6479    4.5111    5.9420 H       1  LIG1        0.0236
     36 H          -2.4483    5.5977    5.7638 H       1  LIG1        0.0236
     37 H          -1.0345    7.6936    3.7278 H       1  LIG1        0.0236
     38 H          -2.5598    7.4116    4.2142 H       1  LIG1        0.0236
     39 H          -2.4407    8.2993    2.9343 H       1  LIG1        0.0236
     40 H          -1.3042    5.8500    0.5984 H       1  LIG1        0.0236
     41 H          -1.6533    7.4888    0.8127 H       1  LIG1        0.0236
     42 H          -0.3090    6.8891    1.3991 H       1  LIG1        0.0236
     43 H          -4.1717    6.4200    2.6670 H       1  LIG1        0.0236
     44 H          -3.6954    6.7184    1.2221 H       1  LIG1        0.0236
     45 H          -3.7156    5.2577    1.7459 H       1  LIG1        0.0236
     46 H           3.9904    1.5497    4.1095 H       1  LIG1        0.0268
     47 H           4.0886    1.3419    5.6434 H       1  LIG1        0.0268
     48 H           2.7130    1.2321    4.9318 H       1  LIG1        0.0268
     49 H           3.0229    2.8783    7.1172 H       1  LIG1        0.0268
     50 H           4.2557    3.7733    6.8210 H       1  LIG1        0.0268
     51 H           2.8227    4.3508    6.6729 H       1  LIG1        0.0268
     52 H           4.1277    3.6991    3.2738 H       1  LIG1        0.0268
     53 H           5.2050    3.6680    4.6368 H       1  LIG1        0.0268
     54 H           4.0263    4.8659    4.3804 H       1  LIG1        0.0268
     55 H           1.6282    5.5917    1.8482 H       1  LIG1        0.0658
     56 H           3.5812    6.6635    1.0993 H       1  LIG1        0.2921
     57 H           3.6504    8.4017    3.9120 H       1  LIG1        0.0654
     58 H           2.2185    8.0647    5.8144 H       1  LIG1        0.0621
     59 H          -0.6460    6.6753    6.0251 H       1  LIG1        0.0278
     60 H           0.6211    7.0628    6.9125 H       1  LIG1        0.0278
     61 H           0.2583    5.5576    6.4815 H       1  LIG1        0.0278
@<TRIPOS>BOND
     1    40    15    1
     2    41    15    1
     3    56     5    1
     4    44    16    1
     5    15    42    1
     6    15    13    1
     7     5    24    1
     8    45    16    1
     9    55    23    1
    10    16    13    1
    11    16    43    1
    12     1     2    1
    13     1     7    1
    14     2     8    1
    15    13     7    1
    16    13    14    1
    17    23    24   ar
    18    23    22   ar
    19    32    11    1
    20    24    25   ar
    21    39    14    1
    22     7     8    1
    23     7     9    1
    24    52    21    1
    25    33    11    1
    26    14    37    1
    27    14    38    1
    28     8    22    1
    29     8     6    1
    30    11     9    1
    31    11    31    1
    32    22    27   ar
    33    25    57    1
    34    25    26   ar
    35    46    19    1
    36     9    10    1
    37     9    12    1
    38    21    54    1
    39    21    53    1
    40    21    18    1
    41    30    10    1
    42     4    17    1
    43     4    18    1
    44     6    10    1
    45     6    17   am
    46    10    29    1
    47    34    12    1
    48    27    26   ar
    49    27    28    1
    50    48    19    1
    51    19    18    1
    52    19    47    1
    53    26    58    1
    54    17     3    2
    55    18    20    1
    56    12    36    1
    57    12    35    1
    58    59    28    1
    59    28    61    1
    60    28    60    1
    61    20    51    1
    62    20    50    1
    63    20    49    1
