@<TRIPOS>MOLECULE
?
 51 54 0 0 0
SMALL
GASTEIGER

@<TRIPOS>ATOM
      1 O           4.1918   10.2078    3.1768 O.3     1  LIG1       -0.3611
      2 O           1.3851    7.3293    5.4067 O.3     1  LIG1       -0.3649
      3 O           5.1446    5.5116    1.7179 O.3     1  LIG1       -0.3649
      4 C           0.6904   12.5331    4.5166 C.3     1  LIG1       -0.0652
      5 H           0.5940   12.8551    3.5961 H       1  LIG1        0.0230
      6 H           0.8050   13.2976    5.1189 H       1  LIG1        0.0230
      7 H          -0.1120   12.0329    4.7732 H       1  LIG1        0.0230
      8 C           1.8995   11.6311    4.6118 C.3     1  LIG1       -0.0532
      9 H           2.0429   11.3867    5.5605 H       1  LIG1        0.0264
     10 H           2.6970   12.1313    4.3057 H       1  LIG1        0.0264
     11 C           1.7710   10.3503    3.7842 C.3     1  LIG1       -0.0211
     12 H           1.0379    9.7976    4.1542 H       1  LIG1        0.0294
     13 H           1.5308   10.5890    2.8541 H       1  LIG1        0.0294
     14 C           3.0416    9.5400    3.7731 C.3     1  LIG1        0.1019
     15 C           3.3868    8.8996    5.1134 C.3     1  LIG1        0.0104
     16 H           4.3734    8.8561    5.1824 H       1  LIG1        0.0323
     17 H           3.0709    9.5073    5.8286 H       1  LIG1        0.0323
     18 C           2.8429    7.5189    5.4064 C.3     1  LIG1        0.0959
     19 C           2.1869    6.7193    4.3614 C.3     1  LIG1        0.0883
     20 H           2.1227    7.1718    3.4718 H       1  LIG1        0.0625
     21 C           2.3356    5.2242    4.2915 C.3     1  LIG1       -0.0212
     22 H           1.6005    4.8333    3.7566 H       1  LIG1        0.0292
     23 H           2.3026    4.8349    5.2018 H       1  LIG1        0.0292
     24 C           3.6942    4.9192    3.6315 C.3     1  LIG1       -0.0191
     25 H           4.4054    5.3880    4.1361 H       1  LIG1        0.0294
     26 H           3.8700    3.9469    3.6984 H       1  LIG1        0.0294
     27 C           3.7767    5.3285    2.1804 C.3     1  LIG1        0.0934
     28 C           4.2485    6.6552    1.7299 C.3     1  LIG1        0.0908
     29 H           3.9148    6.9100    0.8223 H       1  LIG1        0.0626
     30 C           4.6577    7.8362    2.5741 C.3     1  LIG1        0.0081
     31 H           5.5484    8.1478    2.2739 H       1  LIG1        0.0320
     32 H           4.7454    7.5390    3.5145 H       1  LIG1        0.0320
     33 C           3.6807    9.0166    2.5205 C.3     1  LIG1        0.1017
     34 C           3.1060    9.2944    1.1485 C.3     1  LIG1       -0.0212
     35 H           2.4804   10.0595    1.2069 H       1  LIG1        0.0294
     36 H           2.5925    8.5044    0.8443 H       1  LIG1        0.0294
     37 C           4.1952    9.6126    0.1213 C.3     1  LIG1       -0.0532
     38 H           4.6239   10.4722    0.3600 H       1  LIG1        0.0264
     39 H           4.8895    8.9077    0.1567 H       1  LIG1        0.0264
     40 C           3.6523    9.7051   -1.3019 C.3     1  LIG1       -0.0652
     41 H           3.3663    8.8175   -1.6018 H       1  LIG1        0.0230
     42 H           4.3540   10.0411   -1.8984 H       1  LIG1        0.0230
     43 H           2.8871   10.3183   -1.3208 H       1  LIG1        0.0230
     44 C           3.5319    6.8610    6.5777 C.3     1  LIG1       -0.0333
     45 H           3.1504    5.9696    6.7221 H       1  LIG1        0.0258
     46 H           3.4025    7.4068    7.3812 H       1  LIG1        0.0258
     47 H           4.4901    6.7794    6.3893 H       1  LIG1        0.0258
     48 C           2.8846    4.5535    1.2461 C.3     1  LIG1       -0.0334
     49 H           3.1101    4.7776    0.3186 H       1  LIG1        0.0258
     50 H           1.9489    4.7854    1.4206 H       1  LIG1        0.0258
     51 H           3.0156    3.5929    1.3908 H       1  LIG1        0.0258
@<TRIPOS>BOND
     1    42    40    1
     2    41    40    1
     3    43    40    1
     4    40    37    1
     5    37    39    1
     6    37    38    1
     7    37    34    1
     8    49    48    1
     9    29    28    1
    10    36    34    1
    11    34    35    1
    12    34    33    1
    13    48    51    1
    14    48    50    1
    15    48    27    1
    16     3    28    1
    17     3    27    1
    18    28    27    1
    19    28    30    1
    20    27    24    1
    21    31    30    1
    22    33    30    1
    23    33     1    1
    24    33    14    1
    25    30    32    1
    26    13    11    1
    27     1    14    1
    28    20    19    1
    29     5     4    1
    30    24    26    1
    31    24    25    1
    32    24    21    1
    33    22    21    1
    34    14    11    1
    35    14    15    1
    36    11    12    1
    37    11     8    1
    38    21    19    1
    39    21    23    1
    40    10     8    1
    41    19    18    1
    42    19     2    1
    43     4     8    1
    44     4     7    1
    45     4     6    1
    46     8     9    1
    47    15    16    1
    48    15    18    1
    49    15    17    1
    50    18     2    1
    51    18    44    1
    52    47    44    1
    53    44    45    1
    54    44    46    1
