@<TRIPOS>MOLECULE
C16 H11 N3 S
 62 68 0 0 0
SMALL
GASTEIGER

@<TRIPOS>ATOM
      1 S           6.4656    1.0424    8.9401 S.2     1  LIG1       -0.0521
      2 S           0.4091    1.0074    6.3921 S.2     2  LIG2       -0.0521
      3 N           7.5721    2.0562    6.8411 N.ar    1  LIG1       -0.3127
      4 N           8.8868    2.1898    8.8345 N.pl3   1  LIG1       -0.1908
      5 N           7.4613    5.4611    8.0775 N.1     1  LIG1       -0.1965
      6 N           1.3554    2.5874    8.1989 N.ar    2  LIG2       -0.3127
      7 N           0.5119    3.6717    6.2365 N.pl3   2  LIG2       -0.1908
      8 N           4.2492    4.3680    6.2793 N.1     2  LIG2       -0.1965
      9 C           7.8213    1.8747    8.1791 C.ar    1  LIG1        0.1645
     10 C           6.3778    1.5017    6.3739 C.ar    1  LIG1        0.0582
     11 C           5.9483    1.4637    5.0531 C.ar    1  LIG1       -0.0370
     12 C           4.7473    0.8111    4.7870 C.ar    1  LIG1       -0.0597
     13 C           3.9996    0.2251    5.8064 C.ar    1  LIG1       -0.0606
     14 C           4.4429    0.2585    7.1258 C.ar    1  LIG1       -0.0459
     15 C           5.6390    0.9057    7.3980 C.ar    1  LIG1        0.0389
     16 C           9.9621    2.6448    8.0338 C.ar    1  LIG1        0.0610
     17 C          11.2231    2.7680    8.6232 C.ar    1  LIG1       -0.0383
     18 C          12.3250    3.1184    7.8538 C.ar    1  LIG1       -0.0599
     19 C          12.1967    3.3265    6.4868 C.ar    1  LIG1       -0.0613
     20 C          10.9438    3.2222    5.8989 C.ar    1  LIG1       -0.0547
     21 C           9.8223    2.9051    6.6626 C.ar    1  LIG1       -0.0006
     22 C           8.4635    2.8646    6.0064 C.3     1  LIG1        0.0761
     23 C           7.8617    4.2778    5.7868 C.3     1  LIG1        0.0598
     24 C           7.6408    4.9674    7.0640 C.1     1  LIG1        0.0649
     25 C           0.7990    2.6334    6.9334 C.ar    2  LIG2        0.1645
     26 C           1.5454    1.3003    8.7192 C.ar    2  LIG2        0.0582
     27 C           2.1374    0.9623    9.9310 C.ar    2  LIG2       -0.0370
     28 C           2.2564   -0.3936   10.2386 C.ar    2  LIG2       -0.0597
     29 C           1.7913   -1.3686    9.3755 C.ar    2  LIG2       -0.0606
     30 C           1.1903   -1.0363    8.1783 C.ar    2  LIG2       -0.0459
     31 C           1.0726    0.3064    7.8518 C.ar    2  LIG2        0.0389
     32 C           0.6406    4.9003    6.9192 C.ar    2  LIG2        0.0610
     33 C           0.1167    6.0577    6.3200 C.ar    2  LIG2       -0.0383
     34 C           0.1526    7.2729    6.9902 C.ar    2  LIG2       -0.0599
     35 C           0.6907    7.3542    8.2628 C.ar    2  LIG2       -0.0613
     36 C           1.2085    6.2129    8.8576 C.ar    2  LIG2       -0.0547
     37 C           1.2080    4.9990    8.1935 C.ar    2  LIG2       -0.0006
     38 C           1.8840    3.7963    8.8202 C.3     2  LIG2        0.0761
     39 C           3.4274    3.8653    8.7002 C.3     2  LIG2        0.0598
     40 C           3.8839    4.1338    7.3343 C.1     2  LIG2        0.0649
     41 H           6.4555    1.8676    4.3583 H       1  LIG1        0.0638
     42 H           4.4319    0.7652    3.8921 H       1  LIG1        0.0618
     43 H           3.1770   -0.2024    5.5984 H       1  LIG1        0.0618
     44 H           3.9398   -0.1497    7.8202 H       1  LIG1        0.0629
     45 H          11.3265    2.6114    9.5539 H       1  LIG1        0.0637
     46 H          13.1756    3.2169    8.2668 H       1  LIG1        0.0618
     47 H          12.9581    3.5378    5.9596 H       1  LIG1        0.0618
     48 H          10.8497    3.3683    4.9647 H       1  LIG1        0.0622
     49 H           8.5548    2.4172    5.1168 H       1  LIG1        0.0589
     50 H           8.4774    4.8131    5.2263 H       1  LIG1        0.0442
     51 H           7.0017    4.1976    5.3040 H       1  LIG1        0.0442
     52 H           2.4500    1.6307   10.5291 H       2  LIG2        0.0638
     53 H           2.6649   -0.6516   11.0567 H       2  LIG2        0.0618
     54 H           1.8871   -2.2839    9.6109 H       2  LIG2        0.0618
     55 H           0.8652   -1.7097    7.5926 H       2  LIG2        0.0629
     56 H          -0.2645    6.0093    5.4506 H       2  LIG2        0.0637
     57 H          -0.1939    8.0530    6.5736 H       2  LIG2        0.0618
     58 H           0.7060    8.1847    8.7243 H       2  LIG2        0.0618
     59 H           1.5688    6.2660    9.7345 H       2  LIG2        0.0622
     60 H           1.6472    3.7764    9.7914 H       2  LIG2        0.0589
     61 H           3.7660    4.5778    9.2989 H       2  LIG2        0.0442
     62 H           3.8131    3.0063    9.0056 H       2  LIG2        0.0442
@<TRIPOS>BOND
     1    42    12    1
     2    41    11    1
     3    12    11   ar
     4    12    13   ar
     5    48    20    1
     6    11    10   ar
     7    49    22    1
     8    50    23    1
     9    51    23    1
    10    56    33    1
    11    43    13    1
    12    23    22    1
    13    23    24    1
    14    13    14   ar
    15    20    19   ar
    16    20    21   ar
    17    47    19    1
    18    22    21    1
    19    22     3    1
    20     7    32    1
    21     7    25    1
    22     8    40    3
    23    33    32   ar
    24    33    34   ar
    25    10     3   ar
    26    10    15   ar
    27     2    25   ar
    28     2    31   ar
    29    19    18   ar
    30    57    34    1
    31    21    16   ar
    32     3     9   ar
    33    32    37   ar
    34    25     6   ar
    35    34    35   ar
    36    24     5    3
    37    14    15   ar
    38    14    44    1
    39    40    39    1
    40    15     1   ar
    41    55    30    1
    42    31    30   ar
    43    31    26   ar
    44    18    46    1
    45    18    17   ar
    46    16    17   ar
    47    16     4    1
    48    30    29   ar
    49     9     4    1
    50     9     1   ar
    51    37    38    1
    52    37    36   ar
    53     6    26   ar
    54     6    38    1
    55    35    58    1
    56    35    36   ar
    57    17    45    1
    58    39    38    1
    59    39    62    1
    60    39    61    1
    61    26    27   ar
    62    38    60    1
    63    36    59    1
    64    29    54    1
    65    29    28   ar
    66    27    28   ar
    67    27    52    1
    68    28    53    1
