@<TRIPOS>MOLECULE
?
 34 36 0 0 0
SMALL
GASTEIGER

@<TRIPOS>ATOM
      1 O           0.7964    4.7254    7.3471 O.3     1  LIG1       -0.3806
      2 O          -0.7254    1.1868    8.8024 O.3     1  LIG1       -0.4260
      3 O          -0.3650   -0.9147    9.4977 O.2     1  LIG1       -0.2028
      4 O           1.2833    0.2719    8.5427 O.3     1  LIG1       -0.4257
      5 O           3.5389    4.4120    8.4743 O.2     1  LIG1       -0.2936
      6 C           1.1215    4.4729    8.7137 C.3     1  LIG1        0.1311
      7 C           0.1350    3.4250    9.2651 C.3     1  LIG1        0.0537
      8 H          -0.7264    3.8269    9.3724 H       1  LIG1        0.0413
      9 C           0.0767    2.2675    8.2618 C.3     1  LIG1        0.1534
     10 H          -0.3135    2.5120    7.4219 H       1  LIG1        0.0780
     11 C           1.4690    1.6375    8.1085 C.3     1  LIG1        0.1571
     12 H           1.7843    1.6271    7.2002 H       1  LIG1        0.0783
     13 C           2.4794    2.3266    9.0403 C.3     1  LIG1        0.0823
     14 H           3.3498    1.9617    8.9562 H       1  LIG1        0.0462
     15 C           2.5130    3.8056    8.7072 C.2     1  LIG1        0.1757
     16 C           0.7173    2.9015   10.5542 C.2     1  LIG1       -0.0739
     17 H           0.2383    2.9762   11.3866 H       1  LIG1        0.0577
     18 C           1.9188    2.3311   10.4626 C.2     1  LIG1       -0.0566
     19 C           2.7304    1.7989   11.6067 C.3     1  LIG1       -0.0248
     20 H           2.1714    1.8439   12.4074 H       1  LIG1        0.0340
     21 C           3.1236    0.3397   11.3876 C.3     1  LIG1       -0.0589
     22 H           3.7651    0.2663   10.6575 H       1  LIG1        0.0235
     23 H           3.5552    0.0035   12.1841 H       1  LIG1        0.0235
     24 H           2.3510   -0.2486   11.1527 H       1  LIG1        0.0235
     25 C           3.9595    2.6737   11.8484 C.3     1  LIG1       -0.0589
     26 H           4.4743    2.3482   12.6398 H       1  LIG1        0.0235
     27 H           4.5556    2.6581   11.0615 H       1  LIG1        0.0235
     28 H           3.7093    3.6018   12.0474 H       1  LIG1        0.0235
     29 C           1.1090    5.7471    9.5376 C.3     1  LIG1       -0.0284
     30 H           1.8092    6.3671    9.2144 H       1  LIG1        0.0262
     31 H           1.2636    5.5529   10.4691 H       1  LIG1        0.0262
     32 H           0.2527    6.2128    9.3982 H       1  LIG1        0.0262
     33 C           0.0303    0.0984    8.9994 C.2     1  LIG1        0.5110
     34 H           1.0860    5.4917    7.1272 H       1  LIG1        0.2108
@<TRIPOS>BOND
     1    34     1    1
     2    12    11    1
     3     1     6    1
     4    10     9    1
     5    11     9    1
     6    11     4    1
     7    11    13    1
     8     9     2    1
     9     9     7    1
    10     5    15    2
    11     4    33    1
    12    15     6    1
    13    15    13    1
    14     6     7    1
    15     6    29    1
    16     2    33    1
    17    14    13    1
    18    33     3    2
    19    13    18    1
    20    30    29    1
    21     7     8    1
    22     7    16    1
    23    32    29    1
    24    29    31    1
    25    18    16    2
    26    18    19    1
    27    16    17    1
    28    22    21    1
    29    27    25    1
    30    24    21    1
    31    21    19    1
    32    21    23    1
    33    19    25    1
    34    19    20    1
    35    25    28    1
    36    25    26    1
