@<TRIPOS>MOLECULE
?
 38 39 0 0 0
SMALL
GASTEIGER

@<TRIPOS>ATOM
      1 O          -1.7633    0.7998   10.5388 O.2     1  LIG1       -0.2746
      2 O          -0.2091    1.5458    6.6730 O.3     1  LIG1       -0.3464
      3 N          -0.4358    1.7138    8.9145 N.am    1  LIG1       -0.2480
      4 O           1.1806   -0.9302   11.3078 O.3     1  LIG1       -0.4674
      5 O           2.1408    3.9398    7.8667 O.3     1  LIG1       -0.4664
      6 O           0.3532    0.2053   13.0508 O.2     1  LIG1       -0.2500
      7 O           0.4864    4.3145    9.3431 O.2     1  LIG1       -0.2483
      8 C           0.6261    1.3300   10.9406 C.3     1  LIG1        0.1351
      9 H           0.6298    2.1641   11.4543 H       1  LIG1        0.0510
     10 C          -2.1253    2.7638    7.4718 C.3     1  LIG1       -0.0113
     11 H          -2.7999    2.7865    8.1545 H       1  LIG1        0.0278
     12 H          -2.5437    2.6851    6.6113 H       1  LIG1        0.0278
     13 H          -1.6099    3.5736    7.5050 H       1  LIG1        0.0278
     14 C          -0.6891    1.2375   10.1526 C.2     1  LIG1        0.2328
     15 C           0.9533    2.0489    8.6412 C.3     1  LIG1        0.1612
     16 O          -3.1546    0.1956    7.4024 O.2     1  LIG1       -0.2928
     17 C           0.7123    0.1639   11.9018 C.2     1  LIG1        0.3190
     18 C           1.1075    1.4030    7.2691 C.3     1  LIG1        0.0826
     19 H           1.7800    1.8623    6.7417 H       1  LIG1        0.0588
     20 H           1.3536    0.4682    7.3509 H       1  LIG1        0.0588
     21 C          -1.1618   -1.0208    7.8876 C.3     1  LIG1       -0.0014
     22 H          -1.7373   -1.7884    7.8440 H       1  LIG1        0.0307
     23 H          -0.7405   -0.9851    8.7495 H       1  LIG1        0.0307
     24 H          -0.4901   -1.0857    7.2063 H       1  LIG1        0.0307
     25 C           1.7018    1.4168    9.8409 C.3     1  LIG1        0.0027
     26 H           2.0399    0.5364    9.6147 H       1  LIG1        0.0305
     27 H           2.4423    1.9767   10.1220 H       1  LIG1        0.0305
     28 C           1.1386    3.5696    8.6632 C.2     1  LIG1        0.3332
     29 C          -1.2226    1.5872    7.6987 C.3     1  LIG1        0.1950
     30 C           2.5126    5.3426    7.9414 C.3     1  LIG1        0.0817
     31 H           3.2393    5.5138    7.3391 H       1  LIG1        0.0661
     32 H           2.7840    5.5544    8.8372 H       1  LIG1        0.0661
     33 H           1.7597    5.8863    7.6970 H       1  LIG1        0.0661
     34 C           1.2979   -2.1081   12.1569 C.3     1  LIG1        0.0817
     35 H           1.6439   -2.8409   11.6415 H       1  LIG1        0.0661
     36 H           0.4329   -2.3402   12.5020 H       1  LIG1        0.0661
     37 H           1.8936   -1.9191   12.8860 H       1  LIG1        0.0661
     38 C          -1.9725    0.2231    7.6750 C.2     1  LIG1        0.1801
@<TRIPOS>BOND
     1    12    10    1
     2     2    18    1
     3     2    29    1
     4    19    18    1
     5    24    21    1
     6    18    20    1
     7    18    15    1
     8    31    30    1
     9    16    38    2
    10    10    13    1
    11    10    29    1
    12    10    11    1
    13    38    29    1
    14    38    21    1
    15    33    30    1
    16    29     3    1
    17    22    21    1
    18     5    30    1
    19     5    28    1
    20    21    23    1
    21    30    32    1
    22    15    28    1
    23    15     3    1
    24    15    25    1
    25    28     7    2
    26     3    14   am
    27    26    25    1
    28    25    27    1
    29    25     8    1
    30    14     1    2
    31    14     8    1
    32     8     9    1
    33     8    17    1
    34     4    17    1
    35     4    34    1
    36    35    34    1
    37    17     6    2
    38    34    36    1
    39    34    37    1
