@<TRIPOS>MOLECULE
?
 40 42 0 0 0
SMALL
GASTEIGER

@<TRIPOS>ATOM
      1 C           1.1493    1.1372    9.4332 C.3     1  LIG1        0.1067
      2 H           1.9334    0.6577    9.0915 H       1  LIG1        0.0737
      3 C           1.0817    1.0180   10.9380 C.3     1  LIG1        0.0018
      4 H           0.8263    0.1359   11.2807 H       1  LIG1        0.0342
      5 C           0.3006    2.2125   11.5276 C.3     1  LIG1       -0.0430
      6 H          -0.0184    2.0716   12.4327 H       1  LIG1        0.0272
      7 H          -0.4030    2.5517   10.9521 H       1  LIG1        0.0272
      8 C           1.6406    3.0042   11.4363 C.3     1  LIG1       -0.0350
      9 H           1.8044    3.6405   12.1640 H       1  LIG1        0.0306
     10 C           1.7815    3.5657   10.0351 C.3     1  LIG1       -0.0463
     11 H           2.7209    3.7155    9.8416 H       1  LIG1        0.0269
     12 H           1.3253    4.4199    9.9833 H       1  LIG1        0.0269
     13 C           1.1911    2.6068    8.9849 C.3     1  LIG1       -0.0151
     14 H           0.2895    2.8935    8.7727 H       1  LIG1        0.0301
     15 H           1.7186    2.6709    8.1728 H       1  LIG1        0.0301
     16 C           2.3732    1.6367   11.5647 C.3     1  LIG1       -0.0259
     17 C           2.5399    1.2129   13.0214 C.3     1  LIG1       -0.0592
     18 H           1.7105    1.3388   13.4882 H       1  LIG1        0.0235
     19 H           3.2234    1.7456   13.4332 H       1  LIG1        0.0235
     20 H           2.7897    0.2868   13.0582 H       1  LIG1        0.0235
     21 C           3.7006    1.4272   10.8460 C.3     1  LIG1       -0.0592
     22 H           3.6123    1.6898    9.9271 H       1  LIG1        0.0235
     23 H           3.9466    0.5002   10.8910 H       1  LIG1        0.0235
     24 H           4.3799    1.9590   11.2673 H       1  LIG1        0.0235
     25 C          -0.1470   -0.7379    8.6895 C.2     1  LIG1        0.3395
     26 C          -1.4419   -1.1375    8.0592 C.ar    1  LIG1        0.0612
     27 C          -1.6842   -2.4960    7.9004 C.ar    1  LIG1       -0.0175
     28 H          -1.0582   -3.1278    8.1728 H       1  LIG1        0.0648
     29 C          -2.8799   -2.8824    7.3257 C.ar    1  LIG1        0.1270
     30 C          -3.8350   -1.9765    6.9006 C.ar    1  LIG1       -0.0314
     31 H          -4.6300   -2.2675    6.5163 H       1  LIG1        0.0640
     32 C          -3.5760   -0.6294    7.0622 C.ar    1  LIG1       -0.0588
     33 H          -4.2029   -0.0025    6.7801 H       1  LIG1        0.0618
     34 C          -2.3915   -0.2042    7.6406 C.ar    1  LIG1       -0.0476
     35 H          -2.2283    0.7053    7.7501 H       1  LIG1        0.0626
     36 N          -3.1409   -4.3169    7.1598 N.pl3   1  LIG1        0.0564
     37 O          -0.0748    0.5959    8.8346 O.3     1  LIG1       -0.4576
     38 O           0.7052   -1.5090    9.0218 O.2     1  LIG1       -0.2450
     39 O          -4.0923   -4.6571    6.4607 O.2     1  LIG1       -0.1261
     40 O          -2.3946   -5.1062    7.7227 O.2     1  LIG1       -0.1261
@<TRIPOS>BOND
     1    39    36    2
     2    31    30    1
     3    33    32    1
     4    30    32   ar
     5    30    29   ar
     6    32    34   ar
     7    36    29    1
     8    36    40    2
     9    29    27   ar
    10    34    35    1
    11    34    26   ar
    12    27    26   ar
    13    27    28    1
    14    26    25    1
    15    15    13    1
    16    25    37    1
    17    25    38    2
    18    14    13    1
    19    37     1    1
    20    13     1    1
    21    13    10    1
    22     2     1    1
    23     1     3    1
    24    11    10    1
    25    22    21    1
    26    12    10    1
    27    10     8    1
    28    21    23    1
    29    21    24    1
    30    21    16    1
    31     3     4    1
    32     3     5    1
    33     3    16    1
    34     7     5    1
    35     8     5    1
    36     8    16    1
    37     8     9    1
    38     5     6    1
    39    16    17    1
    40    17    20    1
    41    17    19    1
    42    17    18    1
