@<TRIPOS>MOLECULE
?
 37 37 0 0 0
SMALL
GASTEIGER

@<TRIPOS>ATOM
      1 BR          3.1787    7.7636   25.9293 Br      1  LIG1       -0.0389
      2 BR          0.3211    6.5930   26.2689 Br      1  LIG1       -0.0389
      3 C           1.9608    3.6804   26.0705 C.ar    1  LIG1       -0.0230
      4 C           0.7345    3.2565   25.6205 C.ar    1  LIG1       -0.0567
      5 H           0.2637    3.7800   25.0128 H       1  LIG1        0.0621
      6 C           0.1872    2.0584   26.0596 C.ar    1  LIG1       -0.0614
      7 H          -0.6484    1.7914   25.7498 H       1  LIG1        0.0618
      8 C           0.8699    1.2699   26.9446 C.ar    1  LIG1       -0.0617
      9 H           0.5069    0.4632   27.2325 H       1  LIG1        0.0618
     10 C           2.1155    1.6890   27.4084 C.ar    1  LIG1       -0.0614
     11 H           2.5845    1.1617   28.0127 H       1  LIG1        0.0618
     12 C           2.6543    2.8756   26.9762 C.ar    1  LIG1       -0.0567
     13 H           3.4875    3.1445   27.2900 H       1  LIG1        0.0621
     14 C           2.5935    4.9627   25.5710 C.3     1  LIG1        0.1013
     15 H           3.5609    4.8603   25.6893 H       1  LIG1        0.0593
     16 C           3.4062    5.2422   23.2983 C.2     1  LIG1        0.4014
     17 C           3.8204    5.6537   20.9194 C.3     1  LIG1        0.1068
     18 C           4.5236    4.3493   20.6252 C.3     1  LIG1       -0.0253
     19 H           3.8806    3.6364   20.6050 H       1  LIG1        0.0268
     20 H           5.1744    4.1742   21.3075 H       1  LIG1        0.0268
     21 H           4.9624    4.4077   19.7730 H       1  LIG1        0.0268
     22 C           4.7632    6.8144   21.1687 C.3     1  LIG1       -0.0253
     23 H           5.3158    6.6202   21.9293 H       1  LIG1        0.0268
     24 H           4.2539    7.6097   21.3391 H       1  LIG1        0.0268
     25 H           5.3182    6.9475   20.3977 H       1  LIG1        0.0268
     26 C           2.8488    5.9809   19.8205 C.3     1  LIG1       -0.0253
     27 H           2.4382    6.8298   19.9975 H       1  LIG1        0.0268
     28 H           2.1727    5.3005   19.7787 H       1  LIG1        0.0268
     29 H           3.3153    6.0211   18.9812 H       1  LIG1        0.0268
     30 C           2.1775    6.1838   26.4071 C.3     1  LIG1        0.2505
     31 N           2.5339    5.8651   27.8949 N.pl3   1  LIG1        0.0523
     32 N           2.3792    5.2278   24.1776 N.am    1  LIG1       -0.2701
     33 O           3.7259    5.7427   28.1054 O.2     1  LIG1       -0.1294
     34 O           1.6598    5.6881   28.6734 O.2     1  LIG1       -0.1294
     35 O           4.5711    5.0508   23.5888 O.2     1  LIG1       -0.2264
     36 O           2.9204    5.5072   22.0773 O.3     1  LIG1       -0.4447
     37 H           1.4749    5.3685   23.9446 H       1  LIG1        0.1528
@<TRIPOS>BOND
     1    29    26    1
     2    21    18    1
     3    28    26    1
     4    26    27    1
     5    26    17    1
     6    25    22    1
     7    19    18    1
     8    18    17    1
     9    18    20    1
    10    17    22    1
    11    17    36    1
    12    22    24    1
    13    22    23    1
    14    36    16    1
    15    16    35    2
    16    16    32   am
    17    37    32    1
    18    32    14    1
    19     5     4    1
    20    14    15    1
    21    14     3    1
    22    14    30    1
    23     4     6   ar
    24     4     3   ar
    25     7     6    1
    26     1    30    1
    27     6     8   ar
    28     3    12   ar
    29     2    30    1
    30    30    31    1
    31     8     9    1
    32     8    10   ar
    33    12    13    1
    34    12    10   ar
    35    10    11    1
    36    31    33    2
    37    31    34    2
