@<TRIPOS>MOLECULE
[2R,1'S,2'S,1''R,(S)S] -2-[2'-(1''-Hydroxyisopropyl)-3'-oxocyclopentyl]- 2-[2-(p-tolylsulfinyl)phenyl]propanenitrile
 59 61 0 0 0
SMALL
GASTEIGER

@<TRIPOS>ATOM
      1 S           3.7413    9.2667    4.6213 S.3     1  LIG1        0.0202
      2 C           4.0178   10.1694    6.1391 C.ar    1  LIG1        0.0311
      3 C           4.8920   11.2505    6.1491 C.ar    1  LIG1       -0.0463
      4 C           5.0197   12.0003    7.3015 C.ar    1  LIG1       -0.0577
      5 C           4.2840   11.6928    8.4486 C.ar    1  LIG1       -0.0504
      6 C           3.4011   10.6214    8.4031 C.ar    1  LIG1       -0.0577
      7 C           3.2606    9.8563    7.2533 C.ar    1  LIG1       -0.0463
      8 C           4.4501   12.5087    9.7023 C.3     1  LIG1       -0.0397
      9 C           5.3220    8.4077    4.4668 C.ar    1  LIG1        0.0358
     10 C           5.8261    7.8100    5.6192 C.ar    1  LIG1       -0.0463
     11 C           6.8998    6.9417    5.5456 C.ar    1  LIG1       -0.0606
     12 C           7.4614    6.6663    4.3111 C.ar    1  LIG1       -0.0614
     13 C           6.9769    7.2809    3.1620 C.ar    1  LIG1       -0.0560
     14 C           5.8995    8.1684    3.2059 C.ar    1  LIG1       -0.0123
     15 C           5.3518    8.7565    1.8838 C.3     1  LIG1        0.0839
     16 C           5.1005   10.2124    2.0340 C.1     1  LIG1        0.0740
     17 C           6.3811    8.6540    0.7362 C.3     1  LIG1       -0.0422
     18 C           3.9951    8.0707    1.5244 C.3     1  LIG1       -0.0064
     19 C           3.3484    8.5563    0.2073 C.3     1  LIG1       -0.0411
     20 C           2.3919    7.4289   -0.1690 C.3     1  LIG1        0.0065
     21 C           3.1600    6.1961    0.2239 C.2     1  LIG1        0.1392
     22 C           4.0539    6.5299    1.4223 C.3     1  LIG1        0.0482
     23 C           3.5465    5.8180    2.7074 C.3     1  LIG1        0.0673
     24 C           3.5372    4.2932    2.6250 C.3     1  LIG1       -0.0200
     25 C           4.9423    3.7480    2.4244 C.3     1  LIG1       -0.0603
     26 C           2.9119    3.6933    3.8816 C.3     1  LIG1       -0.0603
     27 N           4.9331   11.3406    2.0550 N.1     1  LIG1       -0.1956
     28 O           2.7464    8.1886    4.9572 O.3     1  LIG1       -0.1520
     29 O           3.1283    5.1246   -0.3352 O.2     1  LIG1       -0.2970
     30 O           2.2255    6.2835    2.9832 O.3     1  LIG1       -0.3908
     31 H           5.3986   11.4798    5.3540 H       1  LIG1        0.0629
     32 H           5.6011   12.7326    7.3301 H       1  LIG1        0.0621
     33 H           2.2925    6.8604    3.5731 H       1  LIG1        0.2098
     34 H           2.8650   10.4409    9.2061 H       1  LIG1        0.0621
     35 H           2.6581    9.1375    7.2173 H       1  LIG1        0.0629
     36 H           4.5002   13.4216    9.5156 H       1  LIG1        0.0278
     37 H           5.2470   12.2293   10.2018 H       1  LIG1        0.0278
     38 H           3.6888   12.3576   10.3540 H       1  LIG1        0.0278
     39 H           5.4295    8.0013    6.4854 H       1  LIG1        0.0629
     40 H           7.2190    6.5440    6.3243 H       1  LIG1        0.0618
     41 H           8.1992    6.0203    4.2111 H       1  LIG1        0.0618
     42 H           7.3955    7.0795    2.3275 H       1  LIG1        0.0621
     43 H           6.1079    9.1965   -0.0317 H       1  LIG1        0.0248
     44 H           7.2458    9.0204    0.9792 H       1  LIG1        0.0248
     45 H           6.5145    7.7721    0.4516 H       1  LIG1        0.0248
     46 H           3.3728    8.2851    2.2311 H       1  LIG1        0.0327
     47 H           4.0271    8.6640   -0.5061 H       1  LIG1        0.0273
     48 H           2.8999    9.4444    0.3146 H       1  LIG1        0.0273
     49 H           2.1247    7.4338   -1.0769 H       1  LIG1        0.0342
     50 H           1.6155    7.4573    0.4072 H       1  LIG1        0.0342
     51 H           4.9470    6.2100    1.2025 H       1  LIG1        0.0406
     52 H           4.1593    6.0907    3.4475 H       1  LIG1        0.0603
     53 H           3.0054    4.0120    1.8519 H       1  LIG1        0.0320
     54 H           5.3401    4.0473    1.5145 H       1  LIG1        0.0233
     55 H           4.9235    2.7210    2.4430 H       1  LIG1        0.0233
     56 H           5.5021    4.0545    3.1545 H       1  LIG1        0.0233
     57 H           2.8638    2.7055    3.7837 H       1  LIG1        0.0233
     58 H           1.9837    4.0331    4.0209 H       1  LIG1        0.0233
     59 H           3.4264    3.8698    4.6424 H       1  LIG1        0.0233
@<TRIPOS>BOND
     1    49    20    1
     2    47    19    1
     3    29    21    2
     4    20    19    1
     5    20    21    1
     6    20    50    1
     7    43    17    1
     8    19    48    1
     9    19    18    1
    10    21    22    1
    11    45    17    1
    12    17    44    1
    13    17    15    1
    14    51    22    1
    15    22    18    1
    16    22    23    1
    17    54    25    1
    18    18    15    1
    19    18    46    1
    20    53    24    1
    21    15    16    1
    22    15    14    1
    23    16    27    3
    24    42    13    1
    25    25    55    1
    26    25    24    1
    27    25    56    1
    28    24    23    1
    29    24    26    1
    30    23    30    1
    31    23    52    1
    32    30    33    1
    33    13    14   ar
    34    13    12   ar
    35    14     9   ar
    36    57    26    1
    37    26    58    1
    38    26    59    1
    39    41    12    1
    40    12    11   ar
    41     9     1    1
    42     9    10   ar
    43     1    28    1
    44     1     2    1
    45    31     3    1
    46    11    10   ar
    47    11    40    1
    48    10    39    1
    49     2     3   ar
    50     2     7   ar
    51     3     4   ar
    52    35     7    1
    53     7     6   ar
    54     4    32    1
    55     4     5   ar
    56     6     5   ar
    57     6    34    1
    58     5     8    1
    59    36     8    1
    60     8    37    1
    61     8    38    1
