@<TRIPOS>MOLECULE
?
 40 43 0 0 0
SMALL
GASTEIGER

@<TRIPOS>ATOM
      1 I           3.9692   -3.4345    1.9744 I       1  LIG1       -0.0381
      2 N           3.1785    0.0434    4.2222 N.am    1  LIG1       -0.2760
      3 O           2.4503   -2.0893    4.6632 O.2     1  LIG1       -0.2694
      4 O           4.6414    2.0987    6.6252 O.2     1  LIG1       -0.2953
      5 O           5.5450    4.6520    3.6066 O.2     1  LIG1       -0.2921
      6 C           3.0906   -1.2983    3.9986 C.2     1  LIG1        0.2543
      7 C           3.9711   -1.5632    2.8349 C.2     1  LIG1        0.0813
      8 C           4.6801   -0.4816    2.5061 C.2     1  LIG1        0.0059
      9 C           4.2520    0.6750    3.4086 C.3     1  LIG1        0.0941
     10 C           3.0749    0.6316    5.5462 C.3     1  LIG1        0.0748
     11 H           2.9963   -0.0551    6.2271 H       1  LIG1        0.0543
     12 H           2.3090    1.2245    5.6044 H       1  LIG1        0.0543
     13 C           4.3592    1.3933    5.6942 C.2     1  LIG1        0.1569
     14 C           5.2563    1.1636    4.4753 C.3     1  LIG1        0.0579
     15 H           5.8786    0.4336    4.6775 H       1  LIG1        0.0412
     16 C           6.0652    2.4162    4.1415 C.3     1  LIG1        0.0311
     17 H           6.3982    2.7760    4.9898 H       1  LIG1        0.0386
     18 C           5.2199    3.4837    3.5168 C.2     1  LIG1        0.1623
     19 C           4.0533    3.0959    2.6960 C.2     1  LIG1       -0.0093
     20 C           3.6544    1.8174    2.6460 C.2     1  LIG1       -0.0493
     21 H           2.9394    1.6218    2.0845 H       1  LIG1        0.0600
     22 C           7.3054    2.1291    3.2534 C.3     1  LIG1       -0.0546
     23 H           7.0177    1.9018    2.3663 H       1  LIG1        0.0237
     24 H           7.8027    1.3979    3.6260 H       1  LIG1        0.0237
     25 H           7.8615    2.9107    3.2187 H       1  LIG1        0.0237
     26 C           3.3281    4.1739    1.9314 C.3     1  LIG1       -0.0366
     27 H           3.8876    4.4938    1.2209 H       1  LIG1        0.0279
     28 H           3.1164    4.8993    2.5245 H       1  LIG1        0.0279
     29 H           2.5166    3.8153    1.5639 H       1  LIG1        0.0279
     30 C           5.7126   -0.3574    1.4567 C.ar    1  LIG1       -0.0183
     31 C           5.5873    0.5660    0.4206 C.ar    1  LIG1       -0.0542
     32 H           4.8470    1.1273    0.3879 H       1  LIG1        0.0624
     33 C           6.5566    0.6515   -0.5543 C.ar    1  LIG1       -0.0612
     34 H           6.4575    1.2620   -1.2495 H       1  LIG1        0.0618
     35 C           7.6589   -0.1488   -0.5135 C.ar    1  LIG1       -0.0617
     36 H           8.3175   -0.0738   -1.1658 H       1  LIG1        0.0618
     37 C           7.7872   -1.0652    0.4982 C.ar    1  LIG1       -0.0612
     38 H           8.5318   -1.6218    0.5257 H       1  LIG1        0.0618
     39 C           6.8171   -1.1694    1.4812 C.ar    1  LIG1       -0.0542
     40 H           6.9151   -1.7952    2.1621 H       1  LIG1        0.0624
@<TRIPOS>BOND
     1    34    33    1
     2    36    35    1
     3    33    35   ar
     4    33    31   ar
     5    35    37   ar
     6    32    31    1
     7    31    30   ar
     8    37    38    1
     9    37    39   ar
    10    27    26    1
    11    30    39   ar
    12    30     8    1
    13    39    40    1
    14    29    26    1
    15    26    28    1
    16    26    19    1
    17     1     7    1
    18    21    20    1
    19    23    22    1
    20     8     7    2
    21     8     9    1
    22    20    19    2
    23    20     9    1
    24    19    18    1
    25     7     6    1
    26    25    22    1
    27    22    24    1
    28    22    16    1
    29     9     2    1
    30     9    14    1
    31    18     5    2
    32    18    16    1
    33     6     2   am
    34     6     3    2
    35    16    14    1
    36    16    17    1
    37     2    10    1
    38    14    15    1
    39    14    13    1
    40    10    12    1
    41    10    13    1
    42    10    11    1
    43    13     4    2
