@<TRIPOS>MOLECULE
?
 68 76 0 0 0
SMALL
GASTEIGER

@<TRIPOS>ATOM
      1 O           4.2120    4.1266   14.5299 O.3     1  LIG1       -0.4254
      2 O           5.0012    5.2678   12.7576 O.2     1  LIG1       -0.2507
      3 C          -1.1239    0.4757    9.4893 C.3     1  LIG1        0.0937
      4 C          -2.3154   -0.2462    9.6125 C.2     1  LIG1       -0.0627
      5 H          -2.6824   -0.4168   10.4728 H       1  LIG1        0.0588
      6 C          -2.9591   -0.7101    8.4790 C.2     1  LIG1       -0.0644
      7 H          -3.7724   -1.1925    8.5648 H       1  LIG1        0.0615
      8 C          -0.4211    0.9856   10.6280 C.1     1  LIG1       -0.0823
      9 C           0.2678    1.4998   11.4550 C.1     1  LIG1       -0.0647
     10 C           1.2537    2.1433   12.2897 C.ar    1  LIG1        0.0339
     11 C           0.9233    3.1410   13.2173 C.ar    1  LIG1       -0.0124
     12 C           1.9255    3.7942   13.9401 C.ar    1  LIG1        0.0123
     13 C           3.2528    3.4787   13.7330 C.ar    1  LIG1        0.1404
     14 C           3.6113    2.5097   12.8114 C.ar    1  LIG1        0.0123
     15 C           2.6048    1.8406   12.1048 C.ar    1  LIG1       -0.0124
     16 C           3.1476    0.8380   11.0967 C.3     1  LIG1        0.0363
     17 H           2.4269    0.3567   10.5963 H       1  LIG1        0.0447
     18 C           4.0705    1.6382   10.1893 C.ar    1  LIG1       -0.0315
     19 C           5.0842    2.3090   10.8859 C.ar    1  LIG1       -0.0314
     20 C           5.0144    2.0864   12.3966 C.3     1  LIG1        0.0386
     21 H           5.7331    2.5677   12.8982 H       1  LIG1        0.0447
     22 C           5.0759    0.5722   12.5697 C.ar    1  LIG1       -0.0314
     23 C           6.0303   -0.1401   13.2846 C.ar    1  LIG1       -0.0574
     24 H           6.7170    0.3137   13.7578 H       1  LIG1        0.0621
     25 C           5.9641   -1.5340   13.2958 C.ar    1  LIG1       -0.0615
     26 H           6.6143   -2.0305   13.7795 H       1  LIG1        0.0618
     27 C           4.9647   -2.2011   12.6121 C.ar    1  LIG1       -0.0615
     28 H           4.9311   -3.1500   12.6311 H       1  LIG1        0.0618
     29 C           4.0003   -1.4843   11.8933 C.ar    1  LIG1       -0.0574
     30 H           3.3105   -1.9403   11.4259 H       1  LIG1        0.0621
     31 C           4.0668   -0.1051   11.8736 C.ar    1  LIG1       -0.0315
     32 C           6.0325    3.0486   10.2069 C.ar    1  LIG1       -0.0574
     33 H           6.7193    3.5045   10.6798 H       1  LIG1        0.0621
     34 C           5.9657    3.1137    8.8081 C.ar    1  LIG1       -0.0615
     35 H           6.6183    3.6120    8.3295 H       1  LIG1        0.0618
     36 C           4.9602    2.4607    8.1173 C.ar    1  LIG1       -0.0615
     37 H           4.9272    2.5140    7.1694 H       1  LIG1        0.0618
     38 C           3.9964    1.7260    8.8040 C.ar    1  LIG1       -0.0574
     39 H           3.2972    1.2892    8.3312 H       1  LIG1        0.0621
     40 C           1.3783    4.8683   14.8791 C.3     1  LIG1        0.0386
     41 H           2.0930    5.3309   15.4054 H       1  LIG1        0.0447
     42 C           0.3444    4.1749   15.7572 C.ar    1  LIG1       -0.0314
     43 C          -0.6575    3.5228   15.0251 C.ar    1  LIG1       -0.0315
     44 C          -0.4785    3.6648   13.5186 C.3     1  LIG1        0.0363
     45 H          -1.1917    3.1994   12.9933 H       1  LIG1        0.0447
     46 C          -0.4233    5.1659   13.2542 C.ar    1  LIG1       -0.0315
     47 C          -1.2595    5.8986   12.4196 C.ar    1  LIG1       -0.0574
     48 H          -1.9477    5.4663   11.9267 H       1  LIG1        0.0621
     49 C          -1.0751    7.2789   12.3143 C.ar    1  LIG1       -0.0615
     50 H          -1.6442    7.7869   11.7497 H       1  LIG1        0.0618
     51 C          -0.0700    7.9134   13.0250 C.ar    1  LIG1       -0.0615
     52 H           0.0437    8.8526   12.9432 H       1  LIG1        0.0618
     53 C           0.7746    7.1842   13.8588 C.ar    1  LIG1       -0.0574
     54 H           1.4721    7.6193   14.3354 H       1  LIG1        0.0621
     55 C           0.5876    5.8165   13.9859 C.ar    1  LIG1       -0.0314
     56 C          -1.6821    2.8621   15.6773 C.ar    1  LIG1       -0.0574
     57 H          -2.3565    2.4130   15.1817 H       1  LIG1        0.0621
     58 C          -1.7144    2.8621   17.0668 C.ar    1  LIG1       -0.0615
     59 H          -2.4160    2.4108   17.5203 H       1  LIG1        0.0618
     60 C          -0.7315    3.5159   17.7967 C.ar    1  LIG1       -0.0615
     61 H          -0.7720    3.5196   18.7455 H       1  LIG1        0.0618
     62 C           0.3169    4.1685   17.1424 C.ar    1  LIG1       -0.0574
     63 H           1.0003    4.6004   17.6405 H       1  LIG1        0.0621
     64 C           4.9961    5.0793   13.9366 C.2     1  LIG1        0.3092
     65 C           5.8030    5.8124   14.9640 C.3     1  LIG1        0.0336
     66 H           6.5298    6.3000   14.5223 H       1  LIG1        0.0342
     67 H           6.1792    5.1719   15.6023 H       1  LIG1        0.0342
     68 H           5.2274    6.4461   15.4388 H       1  LIG1        0.0342
@<TRIPOS>BOND
     1    37    36    1
     2    36    38   ar
     3    36    34   ar
     4    35    34    1
     5    39    38    1
     6     6     7    1
     7     6     4    2
     8    38    18   ar
     9    34    32   ar
    10     3     4    1
    11     3     8    1
    12     4     5    1
    13    18    19   ar
    14    18    16    1
    15    32    33    1
    16    32    19   ar
    17    17    16    1
    18     8     9    3
    19    19    20    1
    20    16    31    1
    21    16    15    1
    22    30    29    1
    23     9    10    1
    24    50    49    1
    25    31    29   ar
    26    31    22   ar
    27    29    27   ar
    28    48    47    1
    29    15    10   ar
    30    15    14   ar
    31    10    11   ar
    32    49    47   ar
    33    49    51   ar
    34    20    22    1
    35    20    14    1
    36    20    21    1
    37    47    46   ar
    38    22    23   ar
    39    27    28    1
    40    27    25   ar
    41     2    64    2
    42    14    13   ar
    43    52    51    1
    44    45    44    1
    45    51    53   ar
    46    11    44    1
    47    11    12   ar
    48    46    44    1
    49    46    55   ar
    50    23    25   ar
    51    23    24    1
    52    25    26    1
    53    44    43    1
    54    13    12   ar
    55    13     1    1
    56    53    55   ar
    57    53    54    1
    58    64     1    1
    59    64    65    1
    60    12    40    1
    61    55    40    1
    62    66    65    1
    63    40    41    1
    64    40    42    1
    65    65    68    1
    66    65    67    1
    67    43    56   ar
    68    43    42   ar
    69    57    56    1
    70    56    58   ar
    71    42    62   ar
    72    58    59    1
    73    58    60   ar
    74    62    63    1
    75    62    60   ar
    76    60    61    1
