@<TRIPOS>MOLECULE
C21 H16 F N O3 S
 43 46 0 0 0
SMALL
GASTEIGER

@<TRIPOS>ATOM
      1 S          -0.8931   14.6880    3.0437 S.O2    1  LIG1        0.0779
      2 F           0.7533    8.8026    0.9946 F       1  LIG1       -0.2055
      3 O          -1.8998   13.6767    3.0196 O.2     1  LIG1       -0.1497
      4 O          -1.2592   16.0534    3.2300 O.2     1  LIG1       -0.1497
      5 O           1.2428   16.2868    4.5954 O.2     1  LIG1       -0.2683
      6 N           0.1313   14.2543    4.2835 N.am    1  LIG1       -0.1558
      7 C           1.0856   15.1200    4.8587 C.2     1  LIG1        0.2668
      8 C           1.8251   14.2849    5.8263 C.ar    1  LIG1        0.0438
      9 C           2.8980   14.6591    6.6281 C.ar    1  LIG1       -0.0492
     10 C           3.4584   13.6846    7.4392 C.ar    1  LIG1       -0.0610
     11 C           2.9568   12.3821    7.4295 C.ar    1  LIG1       -0.0614
     12 C           1.8873   12.0164    6.6186 C.ar    1  LIG1       -0.0557
     13 C           1.3240   12.9952    5.8131 C.ar    1  LIG1       -0.0087
     14 C           0.1670   12.8657    4.8441 C.3     1  LIG1        0.0998
     15 C           0.3404   11.7679    3.8110 C.ar    1  LIG1       -0.0207
     16 C          -0.6168   10.7751    3.7027 C.ar    1  LIG1       -0.0537
     17 C          -0.4832    9.7690    2.7522 C.ar    1  LIG1       -0.0261
     18 C           0.6231    9.7795    1.9376 C.ar    1  LIG1        0.1234
     19 C           1.5953   10.7359    2.0285 C.ar    1  LIG1       -0.0261
     20 C           1.4554   11.7333    2.9832 C.ar    1  LIG1       -0.0537
     21 C           0.0996   14.5419    1.6029 C.ar    1  LIG1        0.1089
     22 C           1.2083   15.3804    1.4561 C.ar    1  LIG1       -0.0348
     23 C           2.0140   15.2255    0.3481 C.ar    1  LIG1       -0.0570
     24 C           1.7358   14.2690   -0.6281 C.ar    1  LIG1       -0.0503
     25 C           0.6139   13.4602   -0.4616 C.ar    1  LIG1       -0.0570
     26 C          -0.2021   13.5781    0.6531 C.ar    1  LIG1       -0.0348
     27 C           2.6406   14.1218   -1.8221 C.3     1  LIG1       -0.0397
     28 H           3.2332   15.5475    6.6196 H       1  LIG1        0.0625
     29 H           4.1892   13.9050    8.0066 H       1  LIG1        0.0618
     30 H           3.3565   11.7288    7.9903 H       1  LIG1        0.0618
     31 H           1.5538   11.1261    6.6172 H       1  LIG1        0.0621
     32 H          -0.6738   12.6997    5.3601 H       1  LIG1        0.0619
     33 H          -1.3701   10.7804    4.2816 H       1  LIG1        0.0622
     34 H          -1.1415    9.0903    2.6673 H       1  LIG1        0.0646
     35 H           2.3492   10.7182    1.4519 H       1  LIG1        0.0646
     36 H           2.1286   12.3977    3.0709 H       1  LIG1        0.0622
     37 H           1.4024   16.0442    2.1083 H       1  LIG1        0.0637
     38 H           2.7765   15.7832    0.2482 H       1  LIG1        0.0621
     39 H           0.4037   12.8149   -1.1249 H       1  LIG1        0.0621
     40 H          -0.9543   13.0083    0.7654 H       1  LIG1        0.0637
     41 H           2.5473   14.9064   -2.4006 H       1  LIG1        0.0278
     42 H           2.3935   13.3156   -2.3217 H       1  LIG1        0.0278
     43 H           3.5701   14.0467   -1.5215 H       1  LIG1        0.0278
@<TRIPOS>BOND
     1    41    27    1
     2    42    27    1
     3    27    43    1
     4    27    24    1
     5    39    25    1
     6    24    25   ar
     7    24    23   ar
     8    25    26   ar
     9    38    23    1
    10    23    22   ar
    11    26    40    1
    12    26    21   ar
    13     2    18    1
    14    35    19    1
    15    22    21   ar
    16    22    37    1
    17    21     1    1
    18    18    19   ar
    19    18    17   ar
    20    19    20   ar
    21    34    17    1
    22    17    16   ar
    23    20    36    1
    24    20    15   ar
    25     3     1    2
    26     1     4    2
    27     1     6    1
    28    16    15   ar
    29    16    33    1
    30    15    14    1
    31     6    14    1
    32     6     7   am
    33     5     7    2
    34    14    32    1
    35    14    13    1
    36     7     8    1
    37    13     8   ar
    38    13    12   ar
    39     8     9   ar
    40    31    12    1
    41    12    11   ar
    42    28     9    1
    43     9    10   ar
    44    11    10   ar
    45    11    30    1
    46    10    29    1
