@<TRIPOS>MOLECULE
(S)-3-((R)-2,2-Dimethyl-1,3-dioxolan-4-yl)-3-hydroxy-2,2-dimethylpropanal
 32 32 0 0 0
SMALL
GASTEIGER

@<TRIPOS>ATOM
      1 O           3.3233    5.8165    8.4806 O.3     1  LIG1       -0.3411
      2 O           1.4085    5.7610    9.7023 O.3     1  LIG1       -0.3465
      3 O           1.0527    4.9239    5.7808 O.3     1  LIG1       -0.3882
      4 H           0.3436    4.6555    6.0845 H       1  LIG1        0.2099
      5 O           5.4844    3.8736    7.1692 O.2     1  LIG1       -0.3004
      6 C           2.8114    5.8254    9.8360 C.3     1  LIG1        0.1651
      7 C           1.0777    6.3637    8.4662 C.3     1  LIG1        0.0796
      8 H           1.0063    7.3265    8.5558 H       1  LIG1        0.0588
      9 H           0.2405    6.0148    8.1207 H       1  LIG1        0.0588
     10 C           2.2359    5.9855    7.5682 C.3     1  LIG1        0.1119
     11 H           2.4315    6.7209    6.9515 H       1  LIG1        0.0646
     12 C           2.0317    4.6977    6.7872 C.3     1  LIG1        0.0950
     13 H           1.7007    4.0075    7.3993 H       1  LIG1        0.0629
     14 C           3.3255    4.1925    6.1250 C.3     1  LIG1        0.0487
     15 C           4.2848    3.7336    7.1959 C.2     1  LIG1        0.1284
     16 H           3.9214    3.3076    7.9384 H       1  LIG1        0.1033
     17 C           3.0209    2.8862    5.3628 C.3     1  LIG1       -0.0509
     18 H           3.8203    2.5714    4.9345 H       1  LIG1        0.0240
     19 H           2.3469    3.0525    4.6994 H       1  LIG1        0.0240
     20 H           2.7057    2.2220    5.9806 H       1  LIG1        0.0240
     21 C           3.9518    5.2123    5.1907 C.3     1  LIG1       -0.0509
     22 H           4.2247    5.9827    5.6943 H       1  LIG1        0.0240
     23 H           3.3096    5.4746    4.5266 H       1  LIG1        0.0240
     24 H           4.7170    4.8235    4.7601 H       1  LIG1        0.0240
     25 C           3.2396    4.5758   10.5553 C.3     1  LIG1       -0.0108
     26 H           2.8768    4.5777   11.4445 H       1  LIG1        0.0281
     27 H           4.1983    4.5456   10.6016 H       1  LIG1        0.0281
     28 H           2.9178    3.8063   10.0801 H       1  LIG1        0.0281
     29 C           3.2951    7.0793   10.5190 C.3     1  LIG1       -0.0108
     30 H           2.9607    7.8480   10.0513 H       1  LIG1        0.0281
     31 H           4.2544    7.0952   10.5168 H       1  LIG1        0.0281
     32 H           2.9772    7.0932   11.4253 H       1  LIG1        0.0281
@<TRIPOS>BOND
     1    23    21    1
     2    19    17    1
     3    24    21    1
     4    18    17    1
     5    21    22    1
     6    21    14    1
     7    17    20    1
     8    17    14    1
     9     3     4    1
    10     3    12    1
    11    14    12    1
    12    14    15    1
    13    12    13    1
    14    12    10    1
    15    11    10    1
    16     5    15    2
    17    15    16    1
    18    10     7    1
    19    10     1    1
    20     9     7    1
    21     7     8    1
    22     7     2    1
    23     1     6    1
    24     2     6    1
    25     6    29    1
    26     6    25    1
    27    30    29    1
    28    28    25    1
    29    31    29    1
    30    29    32    1
    31    25    27    1
    32    25    26    1
