@<TRIPOS>MOLECULE
?
 76 79 0 0 0
SMALL
GASTEIGER

@<TRIPOS>ATOM
      1 C          17.6069   31.4499    2.8857 C.3     1  LIG1        0.1599
      2 C          17.9667   31.3507    4.4117 C.3     1  LIG1        0.0777
      3 H          18.9115   31.6773    4.4560 H       1  LIG1        0.0543
      4 C          19.0647   29.1953    4.2169 C.3     1  LIG1        0.0777
      5 H          18.8462   28.2435    4.4292 H       1  LIG1        0.0543
      6 C          18.9576   29.3020    2.6448 C.3     1  LIG1        0.1599
      7 C          20.0375   30.1769    1.9321 C.3     1  LIG1        0.0240
      8 H          20.9370   29.7894    2.0798 H       1  LIG1        0.0442
      9 H          19.8625   30.1964    0.9573 H       1  LIG1        0.0442
     10 C          18.7522   32.2256    2.1638 C.3     1  LIG1        0.0240
     11 H          18.5957   32.2382    1.1862 H       1  LIG1        0.0442
     12 H          18.7954   33.1583    2.4897 H       1  LIG1        0.0442
     13 C          17.6520   30.0326    2.2922 C.2     1  LIG1        0.1732
     14 C          16.2454   32.0388    2.5340 C.2     1  LIG1        0.3236
     15 C          13.9295   31.8504    2.9264 C.3     1  LIG1        0.0817
     16 H          13.9168   32.8162    2.7546 H       1  LIG1        0.0661
     17 H          13.3433   31.6466    3.6843 H       1  LIG1        0.0661
     18 H          13.6119   31.3729    2.1306 H       1  LIG1        0.0661
     19 C          17.2211   32.2721    5.3579 C.ar    1  LIG1        0.0599
     20 C          17.1935   32.0173    6.7288 C.ar    1  LIG1       -0.0388
     21 H          17.5394   31.2019    7.0768 H       1  LIG1        0.0636
     22 C          16.6545   32.9746    7.5771 C.ar    1  LIG1       -0.0586
     23 H          16.6247   32.8265    8.5160 H       1  LIG1        0.0619
     24 C          16.1597   34.1511    7.0297 C.ar    1  LIG1       -0.0436
     25 H          15.7862   34.8273    7.5817 H       1  LIG1        0.0633
     26 C          16.2262   34.3067    5.6579 C.ar    1  LIG1        0.0279
     27 H          15.8842   35.1112    5.2859 H       1  LIG1        0.0829
     28 C          16.7953   29.2788    5.1160 C.3     1  LIG1        0.0980
     29 H          16.5920   28.7223    4.3240 H       1  LIG1        0.0542
     30 H          16.0585   29.9296    5.2333 H       1  LIG1        0.0542
     31 C          16.9002   28.4005    6.3447 C.2     1  LIG1        0.3214
     32 C          15.7096   26.8939    7.7147 C.3     1  LIG1        0.0897
     33 H          15.8080   27.4158    8.5492 H       1  LIG1        0.0694
     34 H          16.4396   26.2291    7.6676 H       1  LIG1        0.0694
     35 C          14.3811   26.2123    7.6805 C.3     1  LIG1       -0.0306
     36 H          13.6700   26.8857    7.6851 H       1  LIG1        0.0262
     37 H          14.2907   25.6339    8.4670 H       1  LIG1        0.0262
     38 H          14.3125   25.6716    6.8672 H       1  LIG1        0.0262
     39 C          20.4582   29.4166    4.7763 C.ar    1  LIG1        0.0599
     40 C          20.6970   30.1376    5.9386 C.ar    1  LIG1       -0.0388
     41 H          19.9860   30.5829    6.3844 H       1  LIG1        0.0636
     42 C          21.9893   30.1954    6.4389 C.ar    1  LIG1       -0.0586
     43 H          22.1784   30.6855    7.2300 H       1  LIG1        0.0619
     44 C          23.0042   29.5268    5.7705 C.ar    1  LIG1       -0.0436
     45 H          23.8989   29.5500    6.0881 H       1  LIG1        0.0633
     46 C          22.6742   28.8280    4.6323 C.ar    1  LIG1        0.0279
     47 H          23.3690   28.3666    4.1754 H       1  LIG1        0.0829
     48 C          18.8480   27.8933    2.0577 C.2     1  LIG1        0.3236
     49 C          19.2139   26.5174    0.1791 C.3     1  LIG1        0.0817
     50 H          19.9714   25.9247    0.3748 H       1  LIG1        0.0661
     51 H          19.1620   26.6737   -0.7874 H       1  LIG1        0.0661
     52 H          18.3816   26.0991    0.4874 H       1  LIG1        0.0661
     53 C          21.2234   32.2762    2.4454 C.3     1  LIG1        0.0970
     54 H          21.8698   31.8244    3.0436 H       1  LIG1        0.0542
     55 H          21.0459   33.1719    2.8276 H       1  LIG1        0.0542
     56 C          21.8789   32.4605    1.0985 C.2     1  LIG1        0.3213
     57 C          23.9091   33.2680    0.0960 C.3     1  LIG1        0.0897
     58 H          23.6376   32.6658   -0.6425 H       1  LIG1        0.0694
     59 H          24.8608   33.0967    0.3000 H       1  LIG1        0.0694
     60 C          23.7338   34.6819   -0.3185 C.3     1  LIG1       -0.0306
     61 H          22.7991   34.8341   -0.5779 H       1  LIG1        0.0262
     62 H          24.3200   34.8752   -1.0801 H       1  LIG1        0.0262
     63 H          23.9643   35.2719    0.4283 H       1  LIG1        0.0262
     64 N          18.0491   29.9864    4.9097 N.3     1  LIG1       -0.2725
     65 N          19.9867   31.5248    2.4719 N.3     1  LIG1       -0.2894
     66 N          16.7405   33.3984    4.8216 N.ar    1  LIG1       -0.2583
     67 N          21.4346   28.7555    4.1283 N.ar    1  LIG1       -0.2583
     68 O          16.8254   29.5938    1.5395 O.2     1  LIG1       -0.2948
     69 O          15.2762   31.4321    3.2341 O.3     1  LIG1       -0.4672
     70 O          16.0585   32.8829    1.6921 O.2     1  LIG1       -0.2496
     71 O          15.7470   27.7695    6.5619 O.3     1  LIG1       -0.4640
     72 O          17.8661   28.2695    7.0223 O.2     1  LIG1       -0.2494
     73 O          19.4019   27.7873    0.8641 O.3     1  LIG1       -0.4672
     74 O          18.2825   26.9958    2.6282 O.2     1  LIG1       -0.2496
     75 O          23.0985   32.9955    1.2737 O.3     1  LIG1       -0.4640
     76 O          21.4052   32.1507    0.0433 O.2     1  LIG1       -0.2494
@<TRIPOS>BOND
     1    62    60    1
     2    51    49    1
     3    58    57    1
     4    61    60    1
     5    60    57    1
     6    60    63    1
     7    76    56    2
     8    57    59    1
     9    57    75    1
    10    49    50    1
    11    49    52    1
    12    49    73    1
    13    73    48    1
    14     9     7    1
    15    56    75    1
    16    56    53    1
    17    11    10    1
    18    68    13    2
    19    70    14    2
    20     7     8    1
    21     7    65    1
    22     7     6    1
    23    48    74    2
    24    48     6    1
    25    18    15    1
    26    10    65    1
    27    10    12    1
    28    10     1    1
    29    13     6    1
    30    13     1    1
    31    53    65    1
    32    53    55    1
    33    53    54    1
    34    14     1    1
    35    14    69    1
    36     6     4    1
    37    16    15    1
    38     1     2    1
    39    15    69    1
    40    15    17    1
    41    67    46   ar
    42    67    39   ar
    43    47    46    1
    44     4     5    1
    45     4    39    1
    46     4    64    1
    47    29    28    1
    48     2     3    1
    49     2    64    1
    50     2    19    1
    51    46    44   ar
    52    39    40   ar
    53    66    19   ar
    54    66    26   ar
    55    64    28    1
    56    28    30    1
    57    28    31    1
    58    27    26    1
    59    19    20   ar
    60    26    24   ar
    61    44    45    1
    62    44    42   ar
    63    40    41    1
    64    40    42   ar
    65    31    71    1
    66    31    72    2
    67    42    43    1
    68    71    32    1
    69    20    21    1
    70    20    22   ar
    71    38    35    1
    72    24    22   ar
    73    24    25    1
    74    22    23    1
    75    34    32    1
    76    35    36    1
    77    35    32    1
    78    35    37    1
    79    32    33    1
