@<TRIPOS>MOLECULE
[1S,1'S,2'S,1''R,(S)S] - N-[1-(2'-{1''-Cyano-1''-[2-(p-tolyl  sulfinyl)phenyl]ethyl}-5'-oxocyclopentyl)-1-(phenyl)methyl-p-toluenesulfonamide
 77 81 0 0 0
SMALL
GASTEIGER

@<TRIPOS>ATOM
      1 S           5.1159    9.0050    7.0846 S.3     1  LIG1        0.0202
      2 S          -0.1856    6.8040    6.7768 S.O2    1  LIG1        0.0590
      3 C           8.5217   14.0506    7.0905 C.3     1  LIG1       -0.0397
      4 H           8.2106   14.7009    6.4261 H       1  LIG1        0.0278
      5 H           9.4384   13.7793    6.8786 H       1  LIG1        0.0278
      6 H           8.4988   14.4590    7.9812 H       1  LIG1        0.0278
      7 C           7.6185   12.8378    7.0701 C.ar    1  LIG1       -0.0504
      8 C           6.7886   12.5341    8.1358 C.ar    1  LIG1       -0.0577
      9 H           6.7671   13.1111    8.8895 H       1  LIG1        0.0621
     10 C           5.9819   11.3957    8.1232 C.ar    1  LIG1       -0.0463
     11 H           5.4253   11.1925    8.8656 H       1  LIG1        0.0629
     12 C           6.0041   10.5652    7.0158 C.ar    1  LIG1        0.0311
     13 C           6.8308   10.8427    5.9425 C.ar    1  LIG1       -0.0463
     14 H           6.8595   10.2573    5.1960 H       1  LIG1        0.0629
     15 C           7.6149   11.9822    5.9667 C.ar    1  LIG1       -0.0577
     16 H           8.1619   12.1864    5.2167 H       1  LIG1        0.0621
     17 C           4.0390    9.1974    5.6508 C.ar    1  LIG1        0.0358
     18 C           3.2790   10.3578    5.5802 C.ar    1  LIG1       -0.0463
     19 H           3.3863   11.0291    6.2429 H       1  LIG1        0.0629
     20 C           2.3692   10.5463    4.5569 C.ar    1  LIG1       -0.0606
     21 H           1.8704   11.3527    4.4933 H       1  LIG1        0.0618
     22 C           2.1987    9.5283    3.6198 C.ar    1  LIG1       -0.0614
     23 H           1.5586    9.6331    2.9254 H       1  LIG1        0.0618
     24 C           2.9533    8.3595    3.6893 C.ar    1  LIG1       -0.0560
     25 H           2.8265    7.6851    3.0322 H       1  LIG1        0.0621
     26 C           3.8904    8.1574    4.7000 C.ar    1  LIG1       -0.0123
     27 C           4.7120    6.8378    4.7429 C.3     1  LIG1        0.0839
     28 C           6.1497    7.2075    4.7757 C.1     1  LIG1        0.0740
     29 C           4.5445    5.9822    3.4669 C.3     1  LIG1       -0.0422
     30 H           4.7487    6.5268    2.6785 H       1  LIG1        0.0248
     31 H           3.6206    5.6575    3.4098 H       1  LIG1        0.0248
     32 H           5.1572    5.2176    3.5038 H       1  LIG1        0.0248
     33 C           4.3835    5.9937    6.0270 C.3     1  LIG1       -0.0070
     34 H           4.5529    6.5687    6.8276 H       1  LIG1        0.0326
     35 C           5.2295    4.7066    6.1763 C.3     1  LIG1       -0.0411
     36 H           6.0321    4.7558    5.5991 H       1  LIG1        0.0273
     37 H           5.5255    4.5987    7.1144 H       1  LIG1        0.0273
     38 C           4.3539    3.5221    5.7610 C.3     1  LIG1        0.0065
     39 H           4.5820    3.2267    4.8439 H       1  LIG1        0.0342
     40 H           4.4806    2.7617    6.3815 H       1  LIG1        0.0342
     41 C           2.9318    4.0185    5.8171 C.2     1  LIG1        0.1386
     42 C           2.9098    5.5402    6.0684 C.3     1  LIG1        0.0430
     43 H           2.4082    5.9885    5.3283 H       1  LIG1        0.0400
     44 C           2.2320    5.8900    7.4323 C.3     1  LIG1        0.0635
     45 H           2.3648    6.8661    7.6052 H       1  LIG1        0.0533
     46 C           2.8499    5.1171    8.5872 C.ar    1  LIG1       -0.0282
     47 C           3.8186    5.7444    9.3554 C.ar    1  LIG1       -0.0570
     48 H           4.0181    6.6619    9.2113 H       1  LIG1        0.0621
     49 C           4.4966    5.0344   10.3313 C.ar    1  LIG1       -0.0615
     50 H           5.1637    5.4690   10.8493 H       1  LIG1        0.0618
     51 C           4.2119    3.6959   10.5630 C.ar    1  LIG1       -0.0617
     52 H           4.6989    3.2110   11.2190 H       1  LIG1        0.0618
     53 C           3.2150    3.0707    9.8359 C.ar    1  LIG1       -0.0615
     54 H           2.9944    2.1627   10.0096 H       1  LIG1        0.0618
     55 C           2.5332    3.7787    8.8458 C.ar    1  LIG1       -0.0570
     56 H           1.8509    3.3493    8.3445 H       1  LIG1        0.0621
     57 C          -0.2984    8.0747    8.0024 C.ar    1  LIG1        0.1053
     58 C           0.4969    9.2089    7.8982 C.ar    1  LIG1       -0.0351
     59 H           1.0915    9.3136    7.1654 H       1  LIG1        0.0637
     60 C           0.4089   10.1944    8.8869 C.ar    1  LIG1       -0.0570
     61 H           0.9460   10.9747    8.8178 H       1  LIG1        0.0621
     62 C          -0.4523   10.0499    9.9715 C.ar    1  LIG1       -0.0503
     63 C          -1.2325    8.8958   10.0593 C.ar    1  LIG1       -0.0570
     64 H          -1.8204    8.7837   10.7967 H       1  LIG1        0.0621
     65 C          -1.1629    7.9071    9.0832 C.ar    1  LIG1       -0.0351
     66 H          -1.6996    7.1269    9.1524 H       1  LIG1        0.0637
     67 C          -0.5742   11.1192   11.0198 C.3     1  LIG1       -0.0397
     68 H          -1.4695   11.5172   10.9784 H       1  LIG1        0.0278
     69 H           0.1004   11.8125   10.8589 H       1  LIG1        0.0278
     70 H          -0.4334   10.7254   11.9057 H       1  LIG1        0.0278
     71 N           7.2631    7.4515    4.7578 N.1     1  LIG1       -0.1956
     72 N           0.7843    5.6324    7.3483 N.3     1  LIG1       -0.1819
     73 O           4.2240    9.0605    8.2899 O.3     1  LIG1       -0.1520
     74 O           0.4565    7.3644    5.6179 O.2     1  LIG1       -0.1530
     75 O          -1.4830    6.1992    6.6431 O.2     1  LIG1       -0.1530
     76 O           1.9563    3.3194    5.6780 O.2     1  LIG1       -0.2970
     77 H           0.3871    5.1632    7.9781 H       1  LIG1        0.1487
@<TRIPOS>BOND
     1    30    29    1
     2    23    22    1
     3    25    24    1
     4    31    29    1
     5    29    32    1
     6    29    27    1
     7    22    24   ar
     8    22    20   ar
     9    24    26   ar
    10    21    20    1
    11    20    18   ar
    12    26    27    1
    13    26    17   ar
    14    27    28    1
    15    27    33    1
    16    71    28    3
    17    39    38    1
    18    14    13    1
    19    16    15    1
    20    43    42    1
    21    18    17   ar
    22    18    19    1
    23    36    35    1
    24    74     2    2
    25    17     1    1
    26    76    41    2
    27    38    41    1
    28    38    35    1
    29    38    40    1
    30    41    42    1
    31    13    15   ar
    32    13    12   ar
    33    15     7   ar
    34    33    42    1
    35    33    35    1
    36    33    34    1
    37    42    44    1
    38    35    37    1
    39     4     3    1
    40    75     2    2
    41     2    72    1
    42     2    57    1
    43     5     3    1
    44    12     1    1
    45    12    10   ar
    46     7     3    1
    47     7     8   ar
    48     1    73    1
    49     3     6    1
    50    59    58    1
    51    72    44    1
    52    72    77    1
    53    44    45    1
    54    44    46    1
    55    58    57   ar
    56    58    60   ar
    57    57    65   ar
    58    10     8   ar
    59    10    11    1
    60     8     9    1
    61    56    55    1
    62    46    55   ar
    63    46    47   ar
    64    61    60    1
    65    55    53   ar
    66    60    62   ar
    67    65    66    1
    68    65    63   ar
    69    48    47    1
    70    47    49   ar
    71    53    54    1
    72    53    51   ar
    73    62    63   ar
    74    62    67    1
    75    63    64    1
    76    49    51   ar
    77    49    50    1
    78    51    52    1
    79    69    67    1
    80    68    67    1
    81    67    70    1
