@<TRIPOS>MOLECULE
?
 160 172 0 0 0
SMALL
GASTEIGER

@<TRIPOS>ATOM
      1 C           3.4640    8.8191    3.8547 C.ar    1  LIG1        0.0665
      2 C           2.4582    9.7848    3.7352 C.ar    1  LIG1        0.1317
      3 C           2.3262   10.5316    2.5655 C.ar    1  LIG1       -0.0191
      4 H           1.6205   11.1588    2.4672 H       1  LIG1        0.0654
      5 C           3.2480   10.3389    1.5493 C.ar    1  LIG1       -0.0548
      6 H           3.1799   10.8672    0.7636 H       1  LIG1        0.0620
      7 C           4.2668    9.3992    1.6397 C.ar    1  LIG1       -0.0191
      8 H           4.8917    9.2896    0.9326 H       1  LIG1        0.0654
      9 C           4.3501    8.6217    2.7920 C.ar    1  LIG1        0.1317
     10 C           6.4152    7.5283    2.1635 C.3     1  LIG1        0.0896
     11 H           6.9212    8.3786    2.1978 H       1  LIG1        0.0696
     12 H           6.1607    7.3480    1.2243 H       1  LIG1        0.0696
     13 C           7.2544    6.3883    2.7136 C.3     1  LIG1       -0.0186
     14 H           8.1080    6.3519    2.2146 H       1  LIG1        0.0298
     15 H           6.7777    5.5350    2.5527 H       1  LIG1        0.0298
     16 C           7.5645    6.5066    4.2164 C.3     1  LIG1       -0.0499
     17 H           8.5306    6.3410    4.3567 H       1  LIG1        0.0266
     18 H           7.3729    7.4314    4.5109 H       1  LIG1        0.0266
     19 C           6.7636    5.5350    5.0864 C.3     1  LIG1       -0.0499
     20 H           5.8093    5.5876    4.8286 H       1  LIG1        0.0266
     21 H           7.0744    4.6131    4.9066 H       1  LIG1        0.0266
     22 C           6.8873    5.8123    6.5753 C.3     1  LIG1       -0.0186
     23 H           7.8448    5.8158    6.8258 H       1  LIG1        0.0298
     24 H           6.5201    6.7105    6.7682 H       1  LIG1        0.0298
     25 C           6.1590    4.7874    7.4205 C.3     1  LIG1        0.0896
     26 H           5.2571    4.6294    7.0450 H       1  LIG1        0.0696
     27 H           6.6546    3.9303    7.4035 H       1  LIG1        0.0696
     28 C           3.6768    5.8527    8.8562 C.ar    1  LIG1        0.0665
     29 C           4.8022    5.2023    9.3851 C.ar    1  LIG1        0.1317
     30 C           4.7254    4.5704   10.6394 C.ar    1  LIG1       -0.0191
     31 H           5.4809    4.1150   10.9929 H       1  LIG1        0.0654
     32 C           3.5486    4.6177   11.3509 C.ar    1  LIG1       -0.0548
     33 H           3.5061    4.1984   12.2024 H       1  LIG1        0.0620
     34 C           2.4200    5.2621   10.8577 C.ar    1  LIG1       -0.0191
     35 H           1.6179    5.2941   11.3645 H       1  LIG1        0.0654
     36 C           2.4941    5.8572    9.6058 C.ar    1  LIG1        0.1317
     37 C           0.5491    7.2879    9.7602 C.3     1  LIG1        0.0896
     38 H           1.0753    7.8588   10.3743 H       1  LIG1        0.0696
     39 H          -0.0609    6.7250   10.3018 H       1  LIG1        0.0696
     40 C          -0.2452    8.1448    8.8008 C.3     1  LIG1       -0.0186
     41 H          -0.9234    8.6485    9.3171 H       1  LIG1        0.0298
     42 H          -0.7306    7.5491    8.1764 H       1  LIG1        0.0298
     43 C           0.5746    9.1415    7.9795 C.3     1  LIG1       -0.0499
     44 H           1.0985    9.7135    8.5944 H       1  LIG1        0.0266
     45 H           1.2138    8.6430    7.4110 H       1  LIG1        0.0266
     46 C          -0.2941   10.0252    7.0951 C.3     1  LIG1       -0.0499
     47 H          -1.0330   10.3909    7.6451 H       1  LIG1        0.0266
     48 H          -0.6989    9.4617    6.3892 H       1  LIG1        0.0266
     49 C           0.4397   11.1996    6.4219 C.3     1  LIG1       -0.0186
     50 H          -0.1263   12.0064    6.5136 H       1  LIG1        0.0298
     51 H           1.2763   11.3671    6.9242 H       1  LIG1        0.0298
     52 C           0.7974   11.0405    4.9543 C.3     1  LIG1        0.0896
     53 H          -0.0195   10.8926    4.4161 H       1  LIG1        0.0696
     54 H           1.2486   11.8561    4.6223 H       1  LIG1        0.0696
     55 C           3.5709    8.0405    5.1243 C.ar    1  LIG1        0.0046
     56 C           3.1040    6.7161    5.1725 C.ar    1  LIG1       -0.0088
     57 C           2.5998    6.0518    4.0098 C.ar    1  LIG1       -0.0534
     58 H           2.5780    6.5149    3.1806 H       1  LIG1        0.0624
     59 C           2.1513    4.7683    4.0715 C.ar    1  LIG1       -0.0611
     60 H           1.8418    4.3378    3.2828 H       1  LIG1        0.0618
     61 C           2.1444    4.0703    5.3044 C.ar    1  LIG1       -0.0611
     62 H           1.8092    3.1823    5.3413 H       1  LIG1        0.0618
     63 C           2.6127    4.6618    6.4308 C.ar    1  LIG1       -0.0534
     64 H           2.5941    4.1821    7.2493 H       1  LIG1        0.0624
     65 C           3.1350    5.9954    6.4124 C.ar    1  LIG1       -0.0088
     66 C           3.6725    6.5964    7.5590 C.ar    1  LIG1        0.0046
     67 C           4.1376    7.9262    7.5122 C.ar    1  LIG1       -0.0088
     68 C           4.6342    8.5925    8.6736 C.ar    1  LIG1       -0.0534
     69 H           4.6818    8.1196    9.4955 H       1  LIG1        0.0624
     70 C           5.0427    9.8933    8.6290 C.ar    1  LIG1       -0.0611
     71 H           5.3577   10.3184    9.4175 H       1  LIG1        0.0618
     72 C           4.9969   10.6093    7.4106 C.ar    1  LIG1       -0.0611
     73 H           5.2905   11.5120    7.3831 H       1  LIG1        0.0618
     74 C           4.5342   10.0138    6.2792 C.ar    1  LIG1       -0.0534
     75 H           4.5142   10.5086    5.4677 H       1  LIG1        0.0624
     76 C           4.0759    8.6564    6.2834 C.ar    1  LIG1       -0.0088
     77 C          -1.3097    9.6999   14.5461 C.ar    2  LIG2        0.0665
     78 C          -2.5990    9.5055   15.0624 C.ar    2  LIG2        0.1317
     79 C          -3.6727   10.3088   14.6802 C.ar    2  LIG2       -0.0191
     80 H          -4.5358   10.1645   15.0505 H       2  LIG2        0.0654
     81 C          -3.4719   11.3149   13.7598 C.ar    2  LIG2       -0.0548
     82 H          -4.2025   11.8579   13.4862 H       2  LIG2        0.0620
     83 C          -2.2219   11.5381   13.2340 C.ar    2  LIG2       -0.0191
     84 H          -2.0915   12.2328   12.6000 H       2  LIG2        0.0654
     85 C          -1.1370   10.7424   13.6320 C.ar    2  LIG2        0.1317
     86 C           0.7428   10.1987   12.2812 C.3     2  LIG2        0.0896
     87 H           0.2979   10.2278   11.3979 H       2  LIG2        0.0696
     88 H           0.7000    9.2715   12.6260 H       2  LIG2        0.0696
     89 C           2.1729   10.6461   12.1610 C.3     2  LIG2       -0.0186
     90 H           2.2191   11.3508   11.4685 H       2  LIG2        0.0298
     91 H           2.4422   11.0574   13.0198 H       2  LIG2        0.0298
     92 C           3.1657    9.5892   11.8189 C.3     2  LIG2       -0.0499
     93 H           4.0462   10.0159   11.6655 H       2  LIG2        0.0266
     94 H           2.8903    9.1538   10.9725 H       2  LIG2        0.0266
     95 C           3.3159    8.5347   12.8799 C.3     2  LIG2       -0.0499
     96 H           2.5566    7.9041   12.8062 H       2  LIG2        0.0266
     97 H           3.2567    8.9709   13.7667 H       2  LIG2        0.0266
     98 C           4.6074    7.7405   12.8199 C.3     2  LIG2       -0.0186
     99 H           4.6856    7.3281   11.9237 H       2  LIG2        0.0298
    100 H           5.3699    8.3623   12.9307 H       2  LIG2        0.0298
    101 C           4.7106    6.6607   13.8592 C.3     2  LIG2        0.0896
    102 H           3.9574    6.0277   13.7593 H       2  LIG2        0.0696
    103 H           5.5553    6.1581   13.7388 H       2  LIG2        0.0696
    104 C           2.9786    6.2606   16.5384 C.ar    2  LIG2        0.0665
    105 C           4.3234    6.3437   16.1455 C.ar    2  LIG2        0.1317
    106 C           5.2908    5.5202   16.7211 C.ar    2  LIG2       -0.0191
    107 H           6.1997    5.5803   16.4494 H       2  LIG2        0.0654
    108 C           4.9103    4.6276   17.6810 C.ar    2  LIG2       -0.0548
    109 H           5.5713    4.0716   18.0751 H       2  LIG2        0.0620
    110 C           3.5961    4.5021   18.1020 C.ar    2  LIG2       -0.0191
    111 H           3.3593    3.8742   18.7755 H       2  LIG2        0.0654
    112 C           2.6214    5.3229   17.5127 C.ar    2  LIG2        0.1317
    113 C           0.7608    4.2661   18.6426 C.3     2  LIG2        0.0896
    114 H           0.9737    4.4592   19.5892 H       2  LIG2        0.0696
    115 H           1.1704    3.3978   18.4020 H       2  LIG2        0.0696
    116 C          -0.7240    4.1980   18.4572 C.3     2  LIG2       -0.0186
    117 H          -1.0636    3.4250   18.9743 H       2  LIG2        0.0298
    118 H          -0.9072    4.0172   17.5010 H       2  LIG2        0.0298
    119 C          -1.5282    5.4360   18.8691 C.3     2  LIG2       -0.0499
    120 H          -1.1591    5.7759   19.7230 H       2  LIG2        0.0266
    121 H          -2.4614    5.1565   19.0411 H       2  LIG2        0.0266
    122 C          -1.5513    6.5920   17.8629 C.3     2  LIG2       -0.0499
    123 H          -0.6678    7.0383   17.8595 H       2  LIG2        0.0266
    124 H          -1.7131    6.2305   16.9548 H       2  LIG2        0.0266
    125 C          -2.6286    7.6186   18.1910 C.3     2  LIG2       -0.0186
    126 H          -3.5167    7.1923   18.0899 H       2  LIG2        0.0298
    127 H          -2.5317    7.8896   19.1378 H       2  LIG2        0.0298
    128 C          -2.5859    8.8539   17.3297 C.3     2  LIG2        0.0896
    129 H          -3.2781    9.4961   17.6273 H       2  LIG2        0.0696
    130 H          -1.7016    9.2896   17.4099 H       2  LIG2        0.0696
    131 C          -0.1740    8.8323   15.0109 C.ar    2  LIG2        0.0046
    132 C          -0.0832    7.4935   14.5700 C.ar    2  LIG2       -0.0088
    133 C          -1.0074    6.9478   13.6236 C.ar    2  LIG2       -0.0534
    134 H          -1.7069    7.4966   13.2874 H       2  LIG2        0.0624
    135 C          -0.9072    5.6576   13.1941 C.ar    2  LIG2       -0.0611
    136 H          -1.5287    5.3195   12.5591 H       2  LIG2        0.0618
    137 C           0.1213    4.8185   13.6907 C.ar    2  LIG2       -0.0611
    138 H           0.1805    3.9176   13.3933 H       2  LIG2        0.0618
    139 C           1.0242    5.2934   14.5916 C.ar    2  LIG2       -0.0534
    140 H           1.7033    4.7146   14.9167 H       2  LIG2        0.0624
    141 C           0.9712    6.6476   15.0599 C.ar    2  LIG2       -0.0088
    142 C           1.9191    7.1553   15.9662 C.ar    2  LIG2        0.0046
    143 C           1.8444    8.4983   16.3820 C.ar    2  LIG2       -0.0088
    144 C           2.7920    9.0589   17.3007 C.ar    2  LIG2       -0.0534
    145 H           3.5062    8.5181   17.6180 H       2  LIG2        0.0624
    146 C           2.6928   10.3443   17.7273 C.ar    2  LIG2       -0.0611
    147 H           3.3340   10.6915   18.3352 H       2  LIG2        0.0618
    148 C           1.6346   11.1699   17.2676 C.ar    2  LIG2       -0.0611
    149 H           1.5657   12.0644   17.5790 H       2  LIG2        0.0618
    150 C           0.7213   10.6906   16.3857 C.ar    2  LIG2       -0.0534
    151 H           0.0266   11.2620   16.0816 H       2  LIG2        0.0624
    152 C           0.7823    9.3395   15.9019 C.ar    2  LIG2       -0.0088
    153 O           1.6704    9.9136    4.8473 O.3     1  LIG1       -0.4912
    154 O           5.2470    7.6058    2.9943 O.3     1  LIG1       -0.4912
    155 O           6.0414    5.2518    8.7865 O.3     1  LIG1       -0.4912
    156 O           1.4215    6.4638    8.9833 O.3     1  LIG1       -0.4912
    157 O          -2.8251    8.4744   15.9532 O.3     2  LIG2       -0.4912
    158 O           0.1088   11.0893   13.1809 O.3     2  LIG2       -0.4912
    159 O           4.6794    7.2586   15.1824 O.3     2  LIG2       -0.4912
    160 O           1.2826    5.3016   17.8051 O.3     2  LIG2       -0.4912
@<TRIPOS>BOND
     1     6     5    1
     2     8     7    1
     3    12    10    1
     4     5     7   ar
     5     5     3   ar
     6     7     9   ar
     7    10    11    1
     8    10    13    1
     9    10   154    1
    10    14    13    1
    11     4     3    1
    12    15    13    1
    13     3     2   ar
    14    13    16    1
    15     9   154    1
    16     9     1   ar
    17    58    57    1
    18    60    59    1
    19     2     1   ar
    20     2   153    1
    21     1    55    1
    22    57    59   ar
    23    57    56   ar
    24    59    61   ar
    25    16    17    1
    26    16    18    1
    27    16    19    1
    28    53    52    1
    29    54    52    1
    30    20    19    1
    31   153    52    1
    32    21    19    1
    33    52    49    1
    34    19    22    1
    35    55    56   ar
    36    55    76   ar
    37    56    65   ar
    38    61    62    1
    39    61    63   ar
    40    75    74    1
    41    74    76   ar
    42    74    72   ar
    43    76    67   ar
    44    48    46    1
    45    65    63   ar
    46    65    66   ar
    47    49    50    1
    48    49    51    1
    49    49    46    1
    50    63    64    1
    51    22    24    1
    52    22    23    1
    53    22    25    1
    54    26    25    1
    55    46    47    1
    56    46    43    1
    57    73    72    1
    58    27    25    1
    59    72    70   ar
    60    45    43    1
    61    25   155    1
    62    67    66   ar
    63    67    68   ar
    64    66    28    1
    65    43    44    1
    66    43    40    1
    67    42    40    1
    68    70    68   ar
    69    70    71    1
    70    68    69    1
    71   155    29    1
    72    40    41    1
    73    40    37    1
    74    28    29   ar
    75    28    36   ar
    76   156    36    1
    77   156    37    1
    78    29    30   ar
    79    36    34   ar
    80    37    39    1
    81    37    38    1
    82    30    31    1
    83    30    32   ar
    84    34    32   ar
    85    34    35    1
    86    94    92    1
    87    32    33    1
    88    87    86    1
    89    90    89    1
    90    93    92    1
    91    92    89    1
    92    92    95    1
    93    99    98    1
    94    89    86    1
    95    89    91    1
    96    86    88    1
    97    86   158    1
    98   136   135    1
    99    84    83    1
   100    96    95    1
   101    98    95    1
   102    98   100    1
   103    98   101    1
   104    95    97    1
   105   158    85    1
   106   135   133   ar
   107   135   137   ar
   108    83    85   ar
   109    83    81   ar
   110   134   133    1
   111   138   137    1
   112    82    81    1
   113   133   132   ar
   114    85    77   ar
   115   137   139   ar
   116   103   101    1
   117   102   101    1
   118    81    79   ar
   119   101   159    1
   120    77   131    1
   121    77    78   ar
   122   132   131   ar
   123   132   141   ar
   124   139   140    1
   125   139   141   ar
   126    79    80    1
   127    79    78   ar
   128   131   152   ar
   129   141   142   ar
   130    78   157    1
   131   159   105    1
   132   152   143   ar
   133   152   150   ar
   134   157   128    1
   135   142   143   ar
   136   142   104    1
   137   151   150    1
   138   105   104   ar
   139   105   106   ar
   140   143   144   ar
   141   150   148   ar
   142   107   106    1
   143   104   112   ar
   144   106   108   ar
   145   124   122    1
   146   148   149    1
   147   148   146   ar
   148   144   145    1
   149   144   146   ar
   150   128   130    1
   151   128   129    1
   152   128   125    1
   153   118   116    1
   154   112   160    1
   155   112   110   ar
   156   108   109    1
   157   108   110   ar
   158   146   147    1
   159   160   113    1
   160   123   122    1
   161   122   125    1
   162   122   119    1
   163   126   125    1
   164   110   111    1
   165   125   127    1
   166   115   113    1
   167   116   113    1
   168   116   119    1
   169   116   117    1
   170   113   114    1
   171   119   121    1
   172   119   120    1
