@<TRIPOS>MOLECULE
?
 74 78 0 0 0
SMALL
GASTEIGER

@<TRIPOS>ATOM
      1 O           5.0078    1.3868    5.7309 O.3     1  LIG1       -0.4543
      2 C           5.6098    2.5115    5.2559 C.2     1  LIG1        0.3223
      3 O           6.5601    2.5582    4.5339 O.2     1  LIG1       -0.2497
      4 C           4.7219    3.5014    5.9938 C.3     1  LIG1        0.1332
      5 C           4.0974    2.1815    6.5682 C.3     1  LIG1        0.1498
      6 H           4.2975    2.0724    7.5205 H       1  LIG1        0.0801
      7 C           5.5187    4.3520    6.9756 C.3     1  LIG1       -0.0322
      8 H           6.0449    4.9909    6.4700 H       1  LIG1        0.0278
      9 H           4.8947    4.8561    7.5205 H       1  LIG1        0.0278
     10 C           6.4476    3.5931    7.8952 C.3     1  LIG1       -0.0638
     11 H           7.0946    3.1137    7.3716 H       1  LIG1        0.0230
     12 H           5.9386    2.9725    8.4221 H       1  LIG1        0.0230
     13 H           6.8987    4.2109    8.4745 H       1  LIG1        0.0230
     14 C           3.8128    4.2814    5.0644 C.ar    1  LIG1       -0.0268
     15 C           3.2528    5.4978    5.4522 C.ar    1  LIG1       -0.0574
     16 H           3.4915    5.8754    6.2687 H       1  LIG1        0.0621
     17 C           2.3407    6.1495    4.6341 C.ar    1  LIG1       -0.0615
     18 H           1.9756    6.9616    4.9024 H       1  LIG1        0.0618
     19 C           1.9738    5.5995    3.4232 C.ar    1  LIG1       -0.0617
     20 H           1.3536    6.0312    2.8816 H       1  LIG1        0.0618
     21 C           2.5333    4.4033    3.0256 C.ar    1  LIG1       -0.0615
     22 H           2.2929    4.0330    2.2074 H       1  LIG1        0.0618
     23 C           3.4520    3.7443    3.8323 C.ar    1  LIG1       -0.0574
     24 H           3.8260    2.9414    3.5492 H       1  LIG1        0.0621
     25 C           2.6576    1.8708    6.2655 C.ar    1  LIG1        0.0243
     26 C           1.5809    2.6233    6.7760 C.ar    1  LIG1        0.1329
     27 N           1.8118    3.6765    7.7365 N.pl3   1  LIG1        0.0568
     28 O           2.8580    3.6746    8.3878 O.2     1  LIG1       -0.1261
     29 O           0.9468    4.5298    7.8969 O.2     1  LIG1       -0.1261
     30 C           0.2842    2.4070    6.3767 C.ar    1  LIG1       -0.0311
     31 H          -0.4032    2.9322    6.7171 H       1  LIG1        0.0640
     32 C           0.0091    1.4033    5.4669 C.ar    1  LIG1       -0.0596
     33 H          -0.8666    1.2539    5.1920 H       1  LIG1        0.0618
     34 C           1.0219    0.6306    4.9695 C.ar    1  LIG1       -0.0613
     35 H           0.8297   -0.0568    4.3739 H       1  LIG1        0.0618
     36 C           2.3467    0.8699    5.3557 C.ar    1  LIG1       -0.0529
     37 H           3.0283    0.3501    4.9957 H       1  LIG1        0.0622
     38 O           4.6142    8.2072    3.4883 O.3     2  LIG2       -0.4543
     39 C           4.8897    8.9827    2.4038 C.2     2  LIG2        0.3223
     40 O           4.4402   10.0771    2.2041 O.2     2  LIG2       -0.2497
     41 C           5.7894    7.9873    1.6969 C.3     2  LIG2        0.1332
     42 C           5.4530    7.1055    2.9634 C.3     2  LIG2        0.1498
     43 H           4.9211    6.3163    2.7327 H       2  LIG2        0.0801
     44 C           5.1446    7.5244    0.3829 C.3     2  LIG2       -0.0322
     45 H           5.2356    8.2375   -0.2684 H       2  LIG2        0.0278
     46 H           5.6450    6.7636    0.0507 H       2  LIG2        0.0278
     47 C           3.6869    7.1366    0.4614 C.3     2  LIG2       -0.0638
     48 H           3.1710    7.8883    0.7609 H       2  LIG2        0.0230
     49 H           3.5816    6.4098    1.0783 H       2  LIG2        0.0230
     50 H           3.3814    6.8653   -0.4074 H       2  LIG2        0.0230
     51 C           7.2256    8.3942    1.5349 C.ar    2  LIG2       -0.0268
     52 C           8.1128    7.6041    0.8476 C.ar    2  LIG2       -0.0574
     53 H           7.8058    6.8131    0.4647 H       2  LIG2        0.0621
     54 C           9.4597    7.9451    0.7003 C.ar    2  LIG2       -0.0615
     55 H          10.0425    7.3878    0.2373 H       2  LIG2        0.0618
     56 C           9.9086    9.1248    1.2551 C.ar    2  LIG2       -0.0617
     57 H          10.8014    9.3677    1.1618 H       2  LIG2        0.0618
     58 C           9.0428    9.9488    1.9489 C.ar    2  LIG2       -0.0615
     59 H           9.3530   10.7444    2.3170 H       2  LIG2        0.0618
     60 C           7.7038    9.5858    2.0945 C.ar    2  LIG2       -0.0574
     61 H           7.1244   10.1385    2.5674 H       2  LIG2        0.0621
     62 C           6.5538    6.7810    3.9321 C.ar    2  LIG2        0.0243
     63 C           7.4630    5.7287    3.7668 C.ar    2  LIG2        0.1329
     64 N           7.4012    4.8561    2.6001 N.pl3   2  LIG2        0.0568
     65 O           6.4242    4.9322    1.8540 O.2     2  LIG2       -0.1261
     66 O           8.3323    4.0935    2.3792 O.2     2  LIG2       -0.1261
     67 C           8.4653    5.4574    4.6750 C.ar    2  LIG2       -0.0311
     68 H           9.0347    4.7342    4.5424 H       2  LIG2        0.0640
     69 C           8.6147    6.2650    5.7795 C.ar    2  LIG2       -0.0596
     70 H           9.2896    6.0917    6.3964 H       2  LIG2        0.0618
     71 C           7.7529    7.3410    5.9709 C.ar    2  LIG2       -0.0613
     72 H           7.8624    7.9002    6.7056 H       2  LIG2        0.0618
     73 C           6.7271    7.5803    5.0644 C.ar    2  LIG2       -0.0529
     74 H           6.1436    8.2888    5.2133 H       2  LIG2        0.0622
@<TRIPOS>BOND
     1    50    47    1
     2    45    44    1
     3    46    44    1
     4    55    54    1
     5    44    47    1
     6    44    41    1
     7    47    48    1
     8    47    49    1
     9    53    52    1
    10    54    52   ar
    11    54    56   ar
    12    52    51   ar
    13    57    56    1
    14    56    58   ar
    15    51    41    1
    16    51    60   ar
    17    41    39    1
    18    41    42    1
    19    65    64    2
    20    58    60   ar
    21    58    59    1
    22    60    61    1
    23    40    39    2
    24    22    21    1
    25    66    64    2
    26    39    38    1
    27    64    63    1
    28    43    42    1
    29    20    19    1
    30    42    38    1
    31    42    62    1
    32    21    19   ar
    33    21    23   ar
    34    19    17   ar
    35    24    23    1
    36    63    62   ar
    37    63    67   ar
    38    23    14   ar
    39    62    73   ar
    40    35    34    1
    41     3     2    2
    42    68    67    1
    43    17    18    1
    44    17    15   ar
    45    67    69   ar
    46    34    36   ar
    47    34    32   ar
    48    37    36    1
    49    14    15   ar
    50    14     4    1
    51    73    74    1
    52    73    71   ar
    53    33    32    1
    54     2     1    1
    55     2     4    1
    56    36    25   ar
    57    15    16    1
    58    32    30   ar
    59     1     5    1
    60    69    71   ar
    61    69    70    1
    62    71    72    1
    63     4     5    1
    64     4     7    1
    65    25     5    1
    66    25    26   ar
    67    30    31    1
    68    30    26   ar
    69     8     7    1
    70     5     6    1
    71    26    27    1
    72     7     9    1
    73     7    10    1
    74    11    10    1
    75    27    29    2
    76    27    28    2
    77    10    12    1
    78    10    13    1
