@<TRIPOS>MOLECULE
?
 28 27 0 0 0
SMALL
GASTEIGER

@<TRIPOS>ATOM
      1 C          -0.5916   -0.5775    4.9545 C.3     1  LIG1        0.0214
      2 C          -0.0507   -0.7842    6.2628 C.2     1  LIG1       -0.0716
      3 H           0.4426   -1.5781    6.4341 H       1  LIG1        0.0580
      4 C          -0.2169    0.1101    7.2638 C.2     1  LIG1       -0.0174
      5 H           0.1606   -0.0782    8.1143 H       1  LIG1        0.0653
      6 C          -0.9421    1.3306    7.0859 C.2     1  LIG1        0.1923
      7 O          -1.0249    2.1824    8.0452 O.2     1  LIG1       -0.2871
      8 C          -1.5624    1.5328    5.8154 C.2     1  LIG1        0.1009
      9 C          -2.4067    2.6543    5.6426 C.2     1  LIG1        0.1762
     10 H          -2.8489    2.7639    4.8091 H       1  LIG1        0.1379
     11 N          -2.6068    3.5466    6.5775 N.2     1  LIG1       -0.2468
     12 H          -2.0892    3.3586    7.3784 H       1  LIG1        0.4450
     13 C          -3.5144    4.6833    6.4278 C.3     1  LIG1        0.1430
     14 H          -4.1549    4.6905    7.1826 H       1  LIG1        0.1025
     15 H          -4.0324    4.5789    5.5905 H       1  LIG1        0.1025
     16 C          -2.7675    6.0057    6.3925 C.3     1  LIG1        0.0064
     17 H          -2.0941    5.9707    5.6681 H       1  LIG1        0.0326
     18 H          -3.4089    6.7264    6.1713 H       1  LIG1        0.0326
     19 C          -2.0668    6.3581    7.6915 C.3     1  LIG1       -0.0476
     20 H          -1.4518    5.6222    7.9369 H       1  LIG1        0.0267
     21 H          -2.7418    6.4411    8.4110 H       1  LIG1        0.0267
     22 C          -1.2768    7.6567    7.5998 C.3     1  LIG1       -0.0557
     23 H          -0.5499    7.5453    6.9363 H       1  LIG1        0.0263
     24 H          -1.8746    8.3746    7.2737 H       1  LIG1        0.0263
     25 C          -0.6731    8.0813    8.9265 C.3     1  LIG1       -0.0653
     26 H          -1.3903    8.2952    9.5590 H       1  LIG1        0.0230
     27 H          -0.1103    8.8726    8.7911 H       1  LIG1        0.0230
     28 H          -0.1279    7.3509    9.2865 H       1  LIG1        0.0230
@<TRIPOS>BOND
     1    10     9    1
     2     1     2    1
     3    15    13    1
     4     9     8    1
     5     9    11    2
     6    17    16    1
     7     8     6    2
     8    18    16    1
     9     2     3    1
    10     2     4    2
    11    16    13    1
    12    16    19    1
    13    13    11    1
    14    13    14    1
    15    11    12    1
    16    23    22    1
    17     6     4    1
    18     6     7    1
    19     4     5    1
    20    24    22    1
    21    22    19    1
    22    22    25    1
    23    19    20    1
    24    19    21    1
    25    27    25    1
    26    25    28    1
    27    25    26    1
