@<TRIPOS>MOLECULE
?
 141 144 0 0 0
SMALL
GASTEIGER

@<TRIPOS>ATOM
      1 C          -3.3908    3.6033    8.9712 C.3     1  LIG1        0.1068
      2 C          -4.7219    3.6912    8.2468 C.3     1  LIG1       -0.0253
      3 H          -5.2398    2.8762    8.4141 H       1  LIG1        0.0268
      4 H          -4.5645    3.7855    7.2831 H       1  LIG1        0.0268
      5 H          -5.2211    4.4687    8.5730 H       1  LIG1        0.0268
      6 C          -2.6416    2.3406    8.5931 C.3     1  LIG1       -0.0253
      7 H          -3.2071    1.5595    8.7654 H       1  LIG1        0.0268
      8 H          -1.8227    2.2737    9.1285 H       1  LIG1        0.0268
      9 H          -2.4090    2.3708    7.6428 H       1  LIG1        0.0268
     10 C          -2.5694    4.8487    8.7086 C.3     1  LIG1       -0.0253
     11 H          -3.0927    5.6408    8.9512 H       1  LIG1        0.0268
     12 H          -2.3352    4.8899    7.7582 H       1  LIG1        0.0268
     13 H          -1.7526    4.8194    9.2473 H       1  LIG1        0.0268
     14 O          -3.8072    3.5438   10.3723 O.3     1  LIG1       -0.4447
     15 C          -2.8995    3.5383   11.3521 C.2     1  LIG1        0.4010
     16 O          -1.6862    3.4962   11.2043 O.2     1  LIG1       -0.2265
     17 N          -3.5222    3.5777   12.5388 N.am    1  LIG1       -0.2765
     18 H          -4.3953    3.4696   12.5651 H       1  LIG1        0.1524
     19 C          -2.8108    3.7910   13.7714 C.3     1  LIG1        0.0446
     20 H          -1.9285    4.2059   13.5522 H       1  LIG1        0.0517
     21 C          -3.5564    4.7296   14.7234 C.3     1  LIG1       -0.0326
     22 H          -4.5307    4.5520   14.7067 H       1  LIG1        0.0284
     23 H          -3.3980    5.6774   14.4842 H       1  LIG1        0.0284
     24 C          -2.9606    4.4027   16.0970 C.3     1  LIG1       -0.0496
     25 H          -2.3776    5.1435   16.3999 H       1  LIG1        0.0266
     26 H          -3.6836    4.2809   16.7613 H       1  LIG1        0.0266
     27 C          -2.1652    3.1464   15.9699 C.3     1  LIG1       -0.0327
     28 H          -2.3791    2.5228   16.7077 H       1  LIG1        0.0284
     29 H          -1.1951    3.3451   15.9933 H       1  LIG1        0.0284
     30 C          -2.5532    2.5393   14.6280 C.3     1  LIG1        0.0416
     31 H          -3.4080    2.0310   14.7334 H       1  LIG1        0.0516
     32 N          -1.5311    1.6483   14.1027 N.am    1  LIG1       -0.3098
     33 H          -0.6834    1.8543   14.2181 H       1  LIG1        0.1491
     34 C          -1.8427    0.5256   13.4468 C.2     1  LIG1        0.2278
     35 O          -3.0071    0.1364   13.2982 O.2     1  LIG1       -0.2747
     36 C          -0.6818   -0.3416   12.9415 C.3     1  LIG1        0.1170
     37 C          -1.1576   -1.1822   11.7486 C.3     1  LIG1       -0.0430
     38 H          -1.3772   -0.5906   10.9991 H       1  LIG1        0.0244
     39 H          -1.9541   -1.6922   12.0063 H       1  LIG1        0.0244
     40 H          -0.4464   -1.8003   11.4792 H       1  LIG1        0.0244
     41 C          -0.3188   -1.2884   14.1027 C.3     1  LIG1       -0.0430
     42 H          -0.0048   -0.7619   14.8673 H       1  LIG1        0.0244
     43 H           0.3870   -1.9028   13.8166 H       1  LIG1        0.0244
     44 H          -1.1127   -1.8021   14.3654 H       1  LIG1        0.0244
     45 C           0.5790    0.4176   12.5082 C.2     1  LIG1        0.2278
     46 O           1.6819   -0.0375   12.7520 O.2     1  LIG1       -0.2747
     47 N           0.3993    1.5430   11.7921 N.am    1  LIG1       -0.3099
     48 H          -0.4036    1.7417   11.4943 H       1  LIG1        0.1491
     49 C           1.5073    2.4321   11.5010 C.3     1  LIG1        0.0415
     50 H           2.3472    1.8891   11.4909 H       1  LIG1        0.0516
     51 C           1.4093    3.1748   10.1809 C.3     1  LIG1       -0.0327
     52 H           0.4859    3.4898   10.0136 H       1  LIG1        0.0284
     53 H           1.7018    2.6070    9.4247 H       1  LIG1        0.0284
     54 C           2.3686    4.3515   10.3967 C.3     1  LIG1       -0.0496
     55 H           3.3125    4.0603   10.3298 H       1  LIG1        0.0266
     56 H           2.2042    5.0721    9.7375 H       1  LIG1        0.0266
     57 C           2.0378    4.8102   11.7988 C.3     1  LIG1       -0.0327
     58 H           1.2803    5.4476   11.7871 H       1  LIG1        0.0284
     59 H           2.8189    5.2525   12.2154 H       1  LIG1        0.0284
     60 C           1.6602    3.5383   12.5735 C.3     1  LIG1        0.0415
     61 H           0.7764    3.6812   13.0185 H       1  LIG1        0.0516
     62 N           2.6479    3.2022   13.5857 N.am    1  LIG1       -0.3099
     63 H           3.4838    3.4348   13.4468 H       1  LIG1        0.1491
     64 C           2.3496    2.5585   14.7184 C.2     1  LIG1        0.2278
     65 O           1.1946    2.2810   15.0498 O.2     1  LIG1       -0.2747
     66 C           3.5495    2.2288   15.6319 C.3     1  LIG1        0.1170
     67 C           4.1273    3.5227   16.1840 C.3     1  LIG1       -0.0430
     68 H           4.8892    3.3185   16.7646 H       1  LIG1        0.0244
     69 H           3.4404    3.9943   16.6994 H       1  LIG1        0.0244
     70 H           4.4257    4.0896   15.4412 H       1  LIG1        0.0244
     71 C           3.0847    1.3214   16.7780 C.3     1  LIG1       -0.0430
     72 H           2.7087    0.4945   16.4099 H       1  LIG1        0.0244
     73 H           2.3993    1.7847   17.3050 H       1  LIG1        0.0244
     74 H           3.8474    1.1053   17.3535 H       1  LIG1        0.0244
     75 C           4.6407    1.4688   14.8506 C.2     1  LIG1        0.2278
     76 O           5.8348    1.7087   15.0507 O.2     1  LIG1       -0.2747
     77 N           4.2212    0.5137   14.0291 N.am    1  LIG1       -0.3099
     78 H           3.3578    0.3443   13.9939 H       1  LIG1        0.1491
     79 C           5.1080   -0.2683   13.1841 C.3     1  LIG1        0.0415
     80 H           6.0074   -0.3232   13.6175 H       1  LIG1        0.0516
     81 C           4.5713   -1.6931   12.9566 C.3     1  LIG1       -0.0327
     82 H           5.2162   -2.3653   13.2962 H       1  LIG1        0.0284
     83 H           3.7067   -1.8177   13.4234 H       1  LIG1        0.0284
     84 C           4.3925   -1.8342   11.4424 C.3     1  LIG1       -0.0496
     85 H           4.5821   -2.7600   11.1480 H       1  LIG1        0.0266
     86 H           3.4711   -1.5915   11.1697 H       1  LIG1        0.0266
     87 C           5.4072   -0.8589   10.8619 C.3     1  LIG1       -0.0327
     88 H           6.3235   -1.2307   10.8987 H       1  LIG1        0.0284
     89 H           5.1863   -0.6282    9.9249 H       1  LIG1        0.0284
     90 C           5.2663    0.3452   11.7720 C.3     1  LIG1        0.0415
     91 H           4.4163    0.8186   11.5378 H       1  LIG1        0.0516
     92 N           6.3691    1.3058   11.6783 N.am    1  LIG1       -0.3099
     93 H           7.1662    1.0082   11.4575 H       1  LIG1        0.1491
     94 C           6.2182    2.6061   11.9109 C.2     1  LIG1        0.2278
     95 O           5.1255    3.1336   12.1184 O.2     1  LIG1       -0.2747
     96 C           7.4931    3.4769   11.8306 C.3     1  LIG1        0.1170
     97 C           7.9550    3.5356   10.3733 C.3     1  LIG1       -0.0430
     98 H           8.1591    2.6299   10.0588 H       1  LIG1        0.0244
     99 H           8.7587    4.0923   10.3064 H       1  LIG1        0.0244
    100 H           7.2438    3.9211    9.8195 H       1  LIG1        0.0244
    101 C           7.1718    4.8963   12.3175 C.3     1  LIG1       -0.0430
    102 H           6.8757    4.8606   13.2511 H       1  LIG1        0.0244
    103 H           6.4605    5.2791   11.7637 H       1  LIG1        0.0244
    104 H           7.9752    5.4540   12.2522 H       1  LIG1        0.0244
    105 C           8.6544    2.9880   12.7023 C.2     1  LIG1        0.2278
    106 O           9.7937    3.2627   12.3755 O.2     1  LIG1       -0.2747
    107 N           8.3534    2.3433   13.8316 N.am    1  LIG1       -0.3099
    108 H           7.5095    2.2343   14.0525 H       1  LIG1        0.1491
    109 C           9.3830    1.8204   14.7000 C.3     1  LIG1        0.0415
    110 H          10.2489    2.2728   14.4825 H       1  LIG1        0.0516
    111 C           9.1010    1.9825   16.1924 C.3     1  LIG1       -0.0327
    112 H           8.1603    1.7618   16.4032 H       1  LIG1        0.0284
    113 H           9.2911    2.9074   16.4919 H       1  LIG1        0.0284
    114 C          10.0607    0.9844   16.8483 C.3     1  LIG1       -0.0496
    115 H           9.6302    0.5558   17.6313 H       1  LIG1        0.0266
    116 H          10.8819    1.4450   17.1528 H       1  LIG1        0.0266
    117 C          10.4030   -0.0742   15.7741 C.3     1  LIG1       -0.0327
    118 H          11.3688   -0.0522   15.5566 H       1  LIG1        0.0284
    119 H          10.1665   -0.9826   16.0903 H       1  LIG1        0.0284
    120 C           9.5684    0.3068   14.5561 C.3     1  LIG1        0.0415
    121 H           8.6737   -0.1355   14.6280 H       1  LIG1        0.0516
    122 N          10.1784   -0.0760   13.2962 N.am    1  LIG1       -0.3098
    123 H          11.0420    0.0531   13.1858 H       1  LIG1        0.1491
    124 C           9.4750   -0.6154   12.3007 C.2     1  LIG1        0.2297
    125 O           8.2800   -0.8672   12.3887 O.2     1  LIG1       -0.2746
    126 C          10.2692   -0.9853   11.0375 C.3     1  LIG1        0.1376
    127 C          10.9896   -2.3131   11.3169 C.3     1  LIG1       -0.0411
    128 H          10.3352   -2.9870   11.5947 H       1  LIG1        0.0245
    129 H          11.6468   -2.1831   12.0314 H       1  LIG1        0.0245
    130 H          11.4442   -2.6153   10.5038 H       1  LIG1        0.0245
    131 C          11.2490    0.1026   10.6075 C.3     1  LIG1       -0.0411
    132 H          10.7577    0.9322   10.4302 H       1  LIG1        0.0245
    133 H          11.7135   -0.1804    9.7927 H       1  LIG1        0.0245
    134 H          11.9032    0.2555   11.3203 H       1  LIG1        0.0245
    135 C           9.2242   -1.0851    9.9283 C.2     1  LIG1        0.3215
    136 O           8.5826   -0.1511    9.5368 O.2     1  LIG1       -0.2497
    137 O           9.1401   -2.3021    9.4146 O.3     1  LIG1       -0.4672
    138 C           8.1938   -2.4395    8.3338 C.3     1  LIG1        0.0817
    139 H           8.1957   -3.3652    8.0125 H       1  LIG1        0.0661
    140 H           8.4456   -1.8387    7.6010 H       1  LIG1        0.0661
    141 H           7.2974   -2.2069    8.6533 H       1  LIG1        0.0661
@<TRIPOS>BOND
     1     4     2    1
     2   140   138    1
     3     9     6    1
     4    12    10    1
     5   139   138    1
     6     2     3    1
     7     2     5    1
     8     2     1    1
     9   138   141    1
    10   138   137    1
    11     6     7    1
    12     6     1    1
    13     6     8    1
    14    10    11    1
    15    10     1    1
    16    10    13    1
    17     1    14    1
    18   137   135    1
    19    53    51    1
    20   136   135    2
    21    56    54    1
    22   133   131    1
    23   100    97    1
    24    89    87    1
    25   135   126    1
    26    52    51    1
    27    98    97    1
    28    51    54    1
    29    51    49    1
    30    99    97    1
    31    55    54    1
    32    14    15    1
    33    97    96    1
    34    54    57    1
    35   132   131    1
    36   130   127    1
    37   131   126    1
    38   131   134    1
    39    87    88    1
    40    87    84    1
    41    87    90    1
    42    38    37    1
    43   126   127    1
    44   126   124    1
    45    85    84    1
    46    86    84    1
    47    16    15    2
    48   127   128    1
    49   127   129    1
    50    15    17   am
    51    84    81    1
    52    93    92    1
    53    40    37    1
    54    50    49    1
    55    48    47    1
    56    49    47    1
    57    49    60    1
    58    91    90    1
    59    92    90    1
    60    92    94   am
    61    37    39    1
    62    37    36    1
    63   103   101    1
    64    90    79    1
    65    58    57    1
    66    47    45   am
    67    57    59    1
    68    57    60    1
    69    96    94    1
    70    96   101    1
    71    96   105    1
    72    94    95    2
    73   104   101    1
    74   124   125    2
    75   124   122   am
    76   101   102    1
    77   106   105    2
    78    45    46    2
    79    45    36    1
    80    17    18    1
    81    17    19    1
    82    60    61    1
    83    60    62    1
    84   105   107   am
    85    36    34    1
    86    36    41    1
    87    81    79    1
    88    81    82    1
    89    81    83    1
    90    79    80    1
    91    79    77    1
    92   123   122    1
    93   122   120    1
    94    35    34    2
    95    63    62    1
    96    34    32   am
    97    20    19    1
    98    62    64   am
    99    19    30    1
   100    19    21    1
   101    43    41    1
   102   107   108    1
   103   107   109    1
   104    78    77    1
   105    77    75   am
   106    32    33    1
   107    32    30    1
   108    41    44    1
   109    41    42    1
   110   110   109    1
   111    23    21    1
   112   120   121    1
   113   120   109    1
   114   120   117    1
   115    30    31    1
   116    30    27    1
   117   109   111    1
   118    22    21    1
   119    64    65    2
   120    64    66    1
   121    21    24    1
   122    75    76    2
   123    75    66    1
   124    70    67    1
   125   118   117    1
   126    66    67    1
   127    66    71    1
   128   117   119    1
   129   117   114    1
   130    27    29    1
   131    27    24    1
   132    27    28    1
   133    24    25    1
   134    24    26    1
   135    67    69    1
   136    67    68    1
   137   111   112    1
   138   111   113    1
   139   111   114    1
   140    72    71    1
   141    71    73    1
   142    71    74    1
   143   114   116    1
   144   114   115    1
