@<TRIPOS>MOLECULE
?
 58 60 0 0 0
SMALL
GASTEIGER

@<TRIPOS>ATOM
      1 BR          3.3036    8.4198    4.4318 Br      1  LIG1        0.0000
      2 BR         -0.1517    8.1048   11.7653 Br      1  LIG1        0.0000
      3 O          -0.6892   11.0902    6.2641 O.3     1  LIG1        0.0000
      4 O           1.3580   11.2076    5.2392 O.3     1  LIG1        0.0000
      5 O           3.5308    6.1371   10.3813 O.3     1  LIG1        0.0000
      6 O           1.4641    5.1599   10.2170 O.3     1  LIG1        0.0000
      7 C           1.0801    9.4428    7.1299 C.ar    1  LIG1        0.0000
      8 C           2.3755    8.9013    7.1148 C.ar    1  LIG1        0.0000
      9 C           2.7051    7.9092    8.0334 C.ar    1  LIG1        0.0000
     10 H           3.5913    7.5675    8.0291 H       1  LIG1        0.0000
     11 C           1.8004    7.3908    8.9605 C.ar    1  LIG1        0.0000
     12 C           0.4952    7.9419    8.9766 C.ar    1  LIG1        0.0000
     13 C           0.1765    8.9577    8.0796 C.ar    1  LIG1        0.0000
     14 H          -0.6936    9.3384    8.1140 H       1  LIG1        0.0000
     15 C           3.4346    9.3595    6.1565 C.3     1  LIG1        0.0000
     16 H           4.3271    9.1951    6.5523 H       1  LIG1        0.0000
     17 H           3.3419   10.3339    6.0070 H       1  LIG1        0.0000
     18 C          -0.5405    7.4544    9.9436 C.3     1  LIG1        0.0000
     19 H          -0.5544    6.4634    9.9414 H       1  LIG1        0.0000
     20 H          -1.4338    7.7742    9.6607 H       1  LIG1        0.0000
     21 C          -0.7210   12.2892    5.4058 C.3     1  LIG1        0.0000
     22 C           0.4469   12.0073    4.4195 C.3     1  LIG1        0.0000
     23 C          -0.4678   13.4834    6.3157 C.3     1  LIG1        0.0000
     24 H          -1.0945   13.4608    7.0686 H       1  LIG1        0.0000
     25 H          -0.5967   14.3130    5.8091 H       1  LIG1        0.0000
     26 H           0.4516   13.4472    6.6545 H       1  LIG1        0.0000
     27 C          -2.0924   12.4034    4.7583 C.3     1  LIG1        0.0000
     28 H          -2.3355   11.5436    4.3560 H       1  LIG1        0.0000
     29 H          -2.0692   13.0942    4.0645 H       1  LIG1        0.0000
     30 H          -2.7551   12.6447    5.4391 H       1  LIG1        0.0000
     31 C           1.2010   13.2345    3.9355 C.3     1  LIG1        0.0000
     32 H           1.6226   13.6810    4.6991 H       1  LIG1        0.0000
     33 H           0.5757   13.8515    3.4999 H       1  LIG1        0.0000
     34 H           1.8906   12.9615    3.2944 H       1  LIG1        0.0000
     35 C           0.0468   11.1168    3.2428 C.3     1  LIG1        0.0000
     36 H           0.8533   10.7698    2.8061 H       1  LIG1        0.0000
     37 H          -0.4744   11.6402    2.5986 H       1  LIG1        0.0000
     38 H          -0.4950   10.3671    3.5698 H       1  LIG1        0.0000
     39 C           3.5213    5.0271   11.3547 C.3     1  LIG1        0.0000
     40 C           2.3440    4.1607   10.8395 C.3     1  LIG1        0.0000
     41 C           4.8816    4.3592   11.3429 C.3     1  LIG1        0.0000
     42 H           5.1207    4.1209   10.4233 H       1  LIG1        0.0000
     43 H           4.8520    3.5477   11.8936 H       1  LIG1        0.0000
     44 H           5.5519    4.9746   11.7053 H       1  LIG1        0.0000
     45 C           3.2573    5.6685   12.7153 C.3     1  LIG1        0.0000
     46 H           3.9413    6.3473   12.8949 H       1  LIG1        0.0000
     47 H           3.2878    4.9807   13.4122 H       1  LIG1        0.0000
     48 H           2.3729    6.0908   12.7110 H       1  LIG1        0.0000
     49 C           2.7462    3.1812    9.7392 C.3     1  LIG1        0.0000
     50 H           1.9409    2.8011    9.3294 H       1  LIG1        0.0000
     51 H           3.2869    2.4602   10.1253 H       1  LIG1        0.0000
     52 H           3.2685    3.6518    9.0573 H       1  LIG1        0.0000
     53 C           1.5440    3.4451   11.9129 C.3     1  LIG1        0.0000
     54 H           1.2274    4.0968   12.5722 H       1  LIG1        0.0000
     55 H           2.1124    2.7815   12.3560 H       1  LIG1        0.0000
     56 H           0.7758    2.9956   11.5031 H       1  LIG1        0.0000
     57 B           0.5842   10.5994    6.1931 B       1  LIG1        0.0000
     58 B           2.2595    6.2206    9.8909 B       1  LIG1        0.0000
@<TRIPOS>BOND
     1    37    35    1
     2    36    35    1
     3    35    38    1
     4    35    22    1
     5    34    31    1
     6    33    31    1
     7    31    22    1
     8    31    32    1
     9    29    27    1
    10    28    27    1
    11    22     4    1
    12    22    21    1
    13     1    15    1
    14    27    21    1
    15    27    30    1
    16     4    57    1
    17    21     3    1
    18    21    23    1
    19    25    23    1
    20    17    15    1
    21    15    16    1
    22    15     8    1
    23    57     3    1
    24    57     7    1
    25    23    26    1
    26    23    24    1
    27     8     7   ar
    28     8     9   ar
    29     7    13   ar
    30    10     9    1
    31     9    11   ar
    32    13    14    1
    33    13    12   ar
    34    11    12   ar
    35    11    58    1
    36    12    18    1
    37    52    49    1
    38    50    49    1
    39    20    18    1
    40    49    51    1
    41    49    40    1
    42    58     6    1
    43    58     5    1
    44    19    18    1
    45    18     2    1
    46     6    40    1
    47     5    39    1
    48    42    41    1
    49    40    39    1
    50    40    53    1
    51    41    39    1
    52    41    44    1
    53    41    43    1
    54    39    45    1
    55    56    53    1
    56    53    55    1
    57    53    54    1
    58    48    45    1
    59    45    46    1
    60    45    47    1
