@<TRIPOS>MOLECULE
?
 42 43 0 0 0
SMALL
GASTEIGER

@<TRIPOS>ATOM
      1 S           1.9183    5.1914   11.1487 S.O2    1  LIG1        0.0609
      2 O           2.6174    5.4177   12.3757 O.2     1  LIG1       -0.1528
      3 O           0.5739    4.7051   11.1736 O.2     1  LIG1       -0.1528
      4 N           2.7783    4.0915   10.3218 N.3     1  LIG1       -0.1754
      5 N           1.3435    3.5689    5.6277 N.1     1  LIG1       -0.1912
      6 C           2.0389   10.3004    7.8773 C.3     1  LIG1       -0.0397
      7 H           2.9234   10.7145    7.9524 H       1  LIG1        0.0278
      8 H           1.3586   10.9181    8.2192 H       1  LIG1        0.0278
      9 H           1.8524   10.0967    6.9368 H       1  LIG1        0.0278
     10 C           2.0107    9.0235    8.6858 C.ar    1  LIG1       -0.0503
     11 C           0.9725    8.1024    8.5408 C.ar    1  LIG1       -0.0570
     12 H           0.2804    8.2714    7.9121 H       1  LIG1        0.0621
     13 C           0.9370    6.9497    9.2954 C.ar    1  LIG1       -0.0351
     14 H           0.2259    6.3309    9.1788 H       1  LIG1        0.0637
     15 C           1.9378    6.6867   10.2290 C.ar    1  LIG1        0.1055
     16 C           2.9773    7.6089   10.3976 C.ar    1  LIG1       -0.0351
     17 H           3.6575    7.4511   11.0419 H       1  LIG1        0.0637
     18 C           3.0035    8.7538    9.6142 C.ar    1  LIG1       -0.0570
     19 H           3.7206    9.3693    9.7169 H       1  LIG1        0.0621
     20 C           4.2564    4.2583   10.2142 C.3     1  LIG1        0.0274
     21 H           4.7299    3.6080   10.7908 H       1  LIG1        0.0450
     22 H           4.5296    5.1748   10.4725 H       1  LIG1        0.0450
     23 C           4.5480    3.9964    8.7389 C.3     1  LIG1       -0.0001
     24 H           5.4666    3.6170    8.6318 H       1  LIG1        0.0362
     25 C           3.4789    2.9119    8.4186 C.3     1  LIG1        0.0155
     26 H           3.7370    2.0737    8.8986 H       1  LIG1        0.0375
     27 C           2.2149    3.4782    9.0977 C.3     1  LIG1        0.0285
     28 H           1.7697    4.1542    8.5264 H       1  LIG1        0.0450
     29 H           1.5701    2.7597    9.3178 H       1  LIG1        0.0450
     30 C           4.3917    5.2263    7.8852 C.2     1  LIG1       -0.0861
     31 H           3.6490    5.7937    8.0578 H       1  LIG1        0.0570
     32 C           5.2086    5.5699    6.9189 C.2     1  LIG1       -0.1023
     33 H           5.9611    5.0260    6.7171 H       1  LIG1        0.0532
     34 H           5.0477    6.3622    6.4189 H       1  LIG1        0.0532
     35 C           3.3456    2.5852    6.9505 C.2     1  LIG1        0.0301
     36 C           4.2216    1.8354    6.2709 C.2     1  LIG1       -0.0734
     37 H           4.0529    1.7111    5.3450 H       1  LIG1        0.0579
     38 C           5.4259    1.1829    6.8256 C.3     1  LIG1       -0.0456
     39 H           5.4338    1.2859    7.8000 H       1  LIG1        0.0272
     40 H           6.2277    1.6003    6.4458 H       1  LIG1        0.0272
     41 H           5.4154    0.2305    6.5983 H       1  LIG1        0.0272
     42 C           2.2398    3.1436    6.2106 C.1     1  LIG1        0.0948
@<TRIPOS>BOND
     1    37    36    1
     2     5    42    3
     3    42    35    1
     4    36    38    1
     5    36    35    2
     6    34    32    1
     7    40    38    1
     8    41    38    1
     9    33    32    1
    10    38    39    1
    11    32    30    2
    12     9     6    1
    13    35    25    1
    14     6     7    1
    15     6     8    1
    16     6    10    1
    17    30    31    1
    18    30    23    1
    19    12    11    1
    20    25    23    1
    21    25    26    1
    22    25    27    1
    23    28    27    1
    24    11    10   ar
    25    11    13   ar
    26    24    23    1
    27    10    18   ar
    28    23    20    1
    29    27    29    1
    30    27     4    1
    31    14    13    1
    32    13    15   ar
    33    18    19    1
    34    18    16   ar
    35    20     4    1
    36    20    22    1
    37    20    21    1
    38    15    16   ar
    39    15     1    1
    40     4     1    1
    41    16    17    1
    42     1     3    2
    43     1     2    2
