@<TRIPOS>MOLECULE
C18 H13 F3 O2
 36 38 0 0 0
SMALL
GASTEIGER

@<TRIPOS>ATOM
      1 F          30.7253   -1.8467    4.6178 F       1  LIG1       -0.1662
      2 F          32.6638   -2.1066    5.4725 F       1  LIG1       -0.1662
      3 F          31.0485   -1.3364    6.6738 F       1  LIG1       -0.1662
      4 O          32.3494    0.0958    3.6540 O.3     1  LIG1       -0.4424
      5 O          31.0093    1.3228    2.2470 O.2     1  LIG1       -0.2500
      6 C          31.3078    0.9376    3.3338 C.2     1  LIG1        0.3197
      7 C          30.8043    1.0790    4.7624 C.3     1  LIG1        0.1274
      8 C          31.9747    0.1169    5.0819 C.3     1  LIG1        0.2483
      9 C          29.3676    0.7639    4.9813 C.2     1  LIG1       -0.0654
     10 C          28.5215    1.6268    5.5359 C.2     1  LIG1       -0.0576
     11 C          27.0639    1.4631    5.6551 C.ar    1  LIG1       -0.0253
     12 C          26.3346    2.4452    6.3187 C.ar    1  LIG1       -0.0546
     13 C          24.9574    2.3662    6.4115 C.ar    1  LIG1       -0.0612
     14 C          24.2863    1.3106    5.8361 C.ar    1  LIG1       -0.0617
     15 C          25.0026    0.3073    5.1794 C.ar    1  LIG1       -0.0612
     16 C          26.3713    0.3864    5.0881 C.ar    1  LIG1       -0.0546
     17 C          33.0798    0.6570    5.9482 C.ar    1  LIG1        0.0057
     18 C          34.3878    0.6391    5.5011 C.ar    1  LIG1       -0.0545
     19 C          35.4011    1.1992    6.2545 C.ar    1  LIG1       -0.0614
     20 C          35.1033    1.7638    7.4658 C.ar    1  LIG1       -0.0617
     21 C          33.8137    1.7526    7.9431 C.ar    1  LIG1       -0.0614
     22 C          32.7954    1.2081    7.1897 C.ar    1  LIG1       -0.0545
     23 C          31.6011   -1.3017    5.4586 C.3     1  LIG1        0.4348
     24 H          31.0111    1.9943    5.1082 H       1  LIG1        0.0503
     25 H          29.0423   -0.0880    4.7153 H       1  LIG1        0.0582
     26 H          28.8941    2.4274    5.8887 H       1  LIG1        0.0621
     27 H          26.7876    3.1813    6.7132 H       1  LIG1        0.0623
     28 H          24.4730    3.0399    6.8733 H       1  LIG1        0.0618
     29 H          23.3368    1.2649    5.8848 H       1  LIG1        0.0618
     30 H          24.5436   -0.4298    4.7949 H       1  LIG1        0.0618
     31 H          26.8511   -0.2962    4.6356 H       1  LIG1        0.0623
     32 H          34.5924    0.2361    4.6658 H       1  LIG1        0.0622
     33 H          36.2966    1.1926    5.9351 H       1  LIG1        0.0618
     34 H          35.7921    2.1658    7.9810 H       1  LIG1        0.0618
     35 H          33.6221    2.1223    8.7978 H       1  LIG1        0.0618
     36 H          31.9038    1.2104    7.5184 H       1  LIG1        0.0622
@<TRIPOS>BOND
     1     5     6    2
     2     6     4    1
     3     6     7    1
     4     4     8    1
     5     1    23    1
     6    31    16    1
     7    32    18    1
     8    25     9    1
     9     7     9    1
    10     7     8    1
    11     7    24    1
    12    30    15    1
    13     9    10    2
    14     8    23    1
    15     8    17    1
    16    16    15   ar
    17    16    11   ar
    18    15    14   ar
    19    23     2    1
    20    23     3    1
    21    18    17   ar
    22    18    19   ar
    23    10    11    1
    24    10    26    1
    25    11    12   ar
    26    14    29    1
    27    14    13   ar
    28    33    19    1
    29    17    22   ar
    30    19    20   ar
    31    12    13   ar
    32    12    27    1
    33    13    28    1
    34    22    36    1
    35    22    21   ar
    36    20    21   ar
    37    20    34    1
    38    21    35    1
