@<TRIPOS>MOLECULE
C26 H35 N1 O4
 66 67 0 0 0
SMALL
GASTEIGER

@<TRIPOS>ATOM
      1 O           4.3866    3.8120   12.0549 O.3     1  LIG1       -0.3788
      2 C           4.3296    3.4788   10.6856 C.3     1  LIG1        0.1706
      3 C           3.2299    2.4363   10.4317 C.3     1  LIG1        0.0660
      4 N           1.9004    3.0645   10.3353 N.3     1  LIG1       -0.2822
      5 C           1.2911    3.6572   11.5559 C.3     1  LIG1        0.0338
      6 C           0.4727    4.8553   11.1006 C.ar    1  LIG1       -0.0305
      7 C           1.1051    5.8905   10.4251 C.ar    1  LIG1       -0.0571
      8 C           0.4326    6.9994   10.0274 C.ar    1  LIG1       -0.0615
      9 C          -0.9014    7.1223   10.2552 C.ar    1  LIG1       -0.0617
     10 C          -1.5788    6.1044   10.8965 C.ar    1  LIG1       -0.0615
     11 C          -0.8942    4.9573   11.3245 C.ar    1  LIG1       -0.0571
     12 C           0.4922    2.6739   12.4398 C.3     1  LIG1       -0.0453
     13 C           0.9490    2.2597    9.5825 C.3     1  LIG1        0.0253
     14 C           1.2416    2.2542    8.0929 C.ar    1  LIG1       -0.0333
     15 C           1.7965    3.3385    7.4573 C.ar    1  LIG1       -0.0573
     16 C           2.0066    3.3322    6.0830 C.ar    1  LIG1       -0.0615
     17 C           1.6636    2.2296    5.3365 C.ar    1  LIG1       -0.0617
     18 C           1.0971    1.1481    5.9519 C.ar    1  LIG1       -0.0615
     19 C           0.8906    1.1544    7.3306 C.ar    1  LIG1       -0.0573
     20 C           3.3943    1.2864   11.3976 C.2     1  LIG1       -0.0679
     21 C           3.7027    0.0610   11.0202 C.2     1  LIG1       -0.0842
     22 C           3.9794   -1.0898   11.9363 C.3     1  LIG1       -0.0114
     23 C           5.3339   -1.7180   11.6770 C.3     1  LIG1        0.0476
     24 O           5.5740   -2.8415   12.5154 O.3     1  LIG1       -0.3947
     25 C           5.6818    2.9225   10.2247 C.2     1  LIG1        0.3384
     26 O           5.6571    2.7049    8.9075 O.3     1  LIG1       -0.4571
     27 C           6.8321    2.2005    8.1629 C.3     1  LIG1        0.1053
     28 C           6.2731    1.9993    6.7657 C.3     1  LIG1       -0.0254
     29 C           7.9004    3.2757    8.1655 C.3     1  LIG1       -0.0254
     30 C           7.3040    0.8877    8.7422 C.3     1  LIG1       -0.0254
     31 O           6.6078    2.7185   10.9643 O.2     1  LIG1       -0.2478
     32 H           4.1515    4.2827   10.1302 H       1  LIG1        0.0730
     33 H           3.4088    2.0958    9.5231 H       1  LIG1        0.0538
     34 H           2.0296    4.0168   12.0751 H       1  LIG1        0.0510
     35 H           2.0338    5.8122   10.2473 H       1  LIG1        0.0621
     36 H           0.8939    7.6968    9.5679 H       1  LIG1        0.0618
     37 H          -1.3603    7.8789    9.9642 H       1  LIG1        0.0618
     38 H          -2.5039    6.1764   11.0466 H       1  LIG1        0.0618
     39 H          -1.3389    4.2608   11.7814 H       1  LIG1        0.0621
     40 H           0.1264    3.1301   13.2483 H       1  LIG1        0.0248
     41 H           1.1180    1.9538   12.7085 H       1  LIG1        0.0248
     42 H          -0.2724    2.3043   11.8973 H       1  LIG1        0.0248
     43 H           0.0736    2.6931    9.7154 H       1  LIG1        0.0476
     44 H           0.8382    1.3165    9.9972 H       1  LIG1        0.0476
     45 H           2.0356    4.0842    7.9429 H       1  LIG1        0.0621
     46 H           2.3916    4.0815    5.6715 H       1  LIG1        0.0618
     47 H           1.8165    2.2369    4.4047 H       1  LIG1        0.0618
     48 H           0.8522    0.3869    5.4384 H       1  LIG1        0.0618
     49 H           0.5101    0.4106    7.7560 H       1  LIG1        0.0621
     50 H           3.2735    1.4858   12.3384 H       1  LIG1        0.0585
     51 H           3.7730   -0.1165   10.0722 H       1  LIG1        0.0570
     52 H           3.9667   -0.7903   12.8915 H       1  LIG1        0.0329
     53 H           3.3169   -1.7844   11.8091 H       1  LIG1        0.0329
     54 H           6.0477   -1.0488   11.8117 H       1  LIG1        0.0560
     55 H           5.3630   -2.0221   10.7280 H       1  LIG1        0.0560
     56 H           6.9910    1.6952    6.1890 H       1  LIG1        0.0268
     57 H           5.9585    2.8669    6.4457 H       1  LIG1        0.0268
     58 H           5.5675    1.3502    6.7921 H       1  LIG1        0.0268
     59 H           8.6323    2.9580    7.5993 H       1  LIG1        0.0268
     60 H           8.2062    3.4223    9.0754 H       1  LIG1        0.0268
     61 H           7.4961    4.0787    7.8113 H       1  LIG1        0.0268
     62 H           7.9707    0.5226    8.1431 H       1  LIG1        0.0268
     63 H           7.6792    1.0607    9.6179 H       1  LIG1        0.0268
     64 H           6.5420    0.2950    8.8107 H       1  LIG1        0.0268
     65 H           5.6105   -2.5874   13.3076 H       1  LIG1        0.2094
     66 H           4.7881    4.5540   12.1317 H       1  LIG1        0.2106
@<TRIPOS>BOND
     1    47    17    1
     2    17    18   ar
     3    17    16   ar
     4    48    18    1
     5    46    16    1
     6    18    19   ar
     7    16    15   ar
     8    56    28    1
     9    57    28    1
    10    28    58    1
    11    28    27    1
    12    19    49    1
    13    19    14   ar
    14    15    45    1
    15    15    14   ar
    16    59    29    1
    17    61    29    1
    18    14    13    1
    19    62    30    1
    20    27    29    1
    21    27    30    1
    22    27    26    1
    23    29    60    1
    24    30    64    1
    25    30    63    1
    26    26    25    1
    27    33     3    1
    28    36     8    1
    29    13    43    1
    30    13    44    1
    31    13     4    1
    32    37     9    1
    33     8     9   ar
    34     8     7   ar
    35    51    21    1
    36    32     2    1
    37    25     2    1
    38    25    31    2
    39    35     7    1
    40     9    10   ar
    41     4     3    1
    42     4     5    1
    43     7     6   ar
    44     3     2    1
    45     3    20    1
    46     2     1    1
    47    55    23    1
    48    10    38    1
    49    10    11   ar
    50    21    20    2
    51    21    22    1
    52     6    11   ar
    53     6     5    1
    54    11    39    1
    55    20    50    1
    56     5    34    1
    57     5    12    1
    58    23    54    1
    59    23    22    1
    60    23    24    1
    61    53    22    1
    62    42    12    1
    63    22    52    1
    64     1    66    1
    65    12    41    1
    66    12    40    1
    67    24    65    1
