@<TRIPOS>MOLECULE
?
 34 36 0 0 0
SMALL
GASTEIGER

@<TRIPOS>ATOM
      1 C          -0.1670    5.0378   13.6075 C.ar    1  LIG1        0.1630
      2 C          -0.6395    5.9162   12.6506 C.ar    1  LIG1        0.1274
      3 C           0.1352    6.0198   11.4559 C.ar    1  LIG1        0.1456
      4 C           1.7118    4.6632   12.4177 C.ar    1  LIG1        0.1632
      5 C           3.0699    4.0818   12.3489 C.ar    1  LIG1        0.0192
      6 C           3.9571    4.4848   11.3497 C.ar    1  LIG1       -0.0510
      7 H           3.6837    5.0974   10.7064 H       1  LIG1        0.0625
      8 C           5.2407    3.9753   11.3146 C.ar    1  LIG1       -0.0611
      9 H           5.8298    4.2535   10.6506 H       1  LIG1        0.0618
     10 C           5.6551    3.0574   12.2585 C.ar    1  LIG1       -0.0617
     11 H           6.5202    2.7176   12.2313 H       1  LIG1        0.0618
     12 C           4.7778    2.6445   13.2452 C.ar    1  LIG1       -0.0611
     13 H           5.0523    2.0211   13.8781 H       1  LIG1        0.0618
     14 C           3.4941    3.1562   13.2935 C.ar    1  LIG1       -0.0510
     15 H           2.9114    2.8783   13.9624 H       1  LIG1        0.0625
     16 C           0.2487    6.9180    9.1190 C.ar    1  LIG1        0.0324
     17 C           1.2884    6.1595    8.5982 C.ar    1  LIG1       -0.0405
     18 H           1.6868    5.4918    9.1086 H       1  LIG1        0.0636
     19 C           1.7263    6.4115    7.3034 C.ar    1  LIG1       -0.0600
     20 H           2.4265    5.9100    6.9527 H       1  LIG1        0.0618
     21 C           1.1430    7.3901    6.5287 C.ar    1  LIG1       -0.0616
     22 H           1.4420    7.5441    5.6624 H       1  LIG1        0.0618
     23 C           0.1069    8.1401    7.0540 C.ar    1  LIG1       -0.0600
     24 H          -0.2909    8.8047    6.5382 H       1  LIG1        0.0618
     25 C          -0.3397    7.9084    8.3404 C.ar    1  LIG1       -0.0405
     26 H          -1.0364    8.4177    8.6872 H       1  LIG1        0.0636
     27 C          -1.8308    6.6787   12.8309 C.1     1  LIG1        0.1055
     28 C          -0.9524    4.7810   14.8016 C.1     1  LIG1        0.1206
     29 N           1.3285    5.4377   11.3949 N.ar    1  LIG1       -0.2111
     30 N           0.9839    4.3720   13.5108 N.ar    1  LIG1       -0.2155
     31 N          -0.3384    6.7102   10.3981 N.pl3   1  LIG1       -0.2983
     32 N          -2.7718    7.3305   12.9328 N.1     1  LIG1       -0.1907
     33 N          -1.5918    4.5610   15.7252 N.1     1  LIG1       -0.1892
     34 H          -1.1500    7.0976   10.5048 H       1  LIG1        0.1536
@<TRIPOS>BOND
     1    22    21    1
     2    21    23   ar
     3    21    19   ar
     4    24    23    1
     5    20    19    1
     6    23    25   ar
     7    19    17   ar
     8    25    26    1
     9    25    16   ar
    10    17    18    1
    11    17    16   ar
    12    16    31    1
    13    31    34    1
    14    31     3    1
    15     9     8    1
    16     7     6    1
    17     8     6   ar
    18     8    10   ar
    19     6     5   ar
    20    29     3   ar
    21    29     4   ar
    22     3     2   ar
    23    11    10    1
    24    10    12   ar
    25     5     4    1
    26     5    14   ar
    27     4    30   ar
    28     2    27    1
    29     2     1   ar
    30    27    32    3
    31    12    14   ar
    32    12    13    1
    33    14    15    1
    34    30     1   ar
    35     1    28    1
    36    28    33    3
