@<TRIPOS>MOLECULE
?
 70 74 0 0 0
SMALL
GASTEIGER

@<TRIPOS>ATOM
      1 S          13.6136    8.1694    3.1657 S.O2    1  LIG1        0.0431
      2 O          19.9562    7.1501    2.0481 O.2     1  LIG1       -0.2681
      3 O          14.3737    7.5841    4.2110 O.2     1  LIG1       -0.1552
      4 O          13.3076    9.5538    3.2124 O.2     1  LIG1       -0.1552
      5 O          20.2752   11.4027   -2.7504 O.3     1  LIG1       -0.4951
      6 O          21.6925    2.3860    5.7945 O.3     1  LIG1       -0.4951
      7 O          16.5955    5.1263    5.3546 O.2     1  LIG1       -0.2479
      8 O          15.2556    4.3481    3.7309 O.3     1  LIG1       -0.4631
      9 N          14.4595    7.8973    1.7965 N.pl3   1  LIG1       -0.1998
     10 N          18.3550    6.0267    3.2583 N.am    1  LIG1       -0.2433
     11 C          16.4566    6.4662    2.0689 C.2     1  LIG1        0.0181
     12 C          14.0215    8.3765    0.5236 C.ar    1  LIG1        0.0548
     13 C          13.5327    9.6242    0.2206 C.ar    1  LIG1       -0.0388
     14 H          13.3961   10.2591    0.8858 H       1  LIG1        0.0637
     15 C          13.2514    9.9088   -1.1064 C.ar    1  LIG1       -0.0599
     16 H          12.9030   10.7405   -1.3328 H       1  LIG1        0.0618
     17 C          13.4826    8.9702   -2.1002 C.ar    1  LIG1       -0.0614
     18 H          13.3008    9.1835   -2.9872 H       1  LIG1        0.0618
     19 C          13.9780    7.7221   -1.7868 C.ar    1  LIG1       -0.0567
     20 H          14.1292    7.0924   -2.4543 H       1  LIG1        0.0621
     21 C          14.2494    7.4180   -0.4551 C.ar    1  LIG1       -0.0226
     22 C          14.8234    6.1719    0.1265 C.3     1  LIG1       -0.0015
     23 H          15.6658    5.9478   -0.2995 H       1  LIG1        0.0336
     24 H          14.2102    5.4272    0.0209 H       1  LIG1        0.0336
     25 C          15.0364    6.5062    1.6358 C.3     1  LIG1        0.0756
     26 H          14.5175    5.8789    2.1815 H       1  LIG1        0.0569
     27 C          16.9694    5.7835    3.1126 C.3     1  LIG1        0.2003
     28 C          17.5416    7.2282    1.4579 C.2     1  LIG1        0.1195
     29 C          18.7973    6.8506    2.2477 C.2     1  LIG1        0.2681
     30 N          17.3034    8.0365    0.4917 N.pl3   1  LIG1       -0.2097
     31 C          18.1462    8.8629   -0.2554 C.ar    1  LIG1        0.0541
     32 C          19.5368    8.8276   -0.3541 C.ar    1  LIG1       -0.0352
     33 H          20.0213    8.2214    0.1579 H       1  LIG1        0.0638
     34 C          20.1909    9.6769   -1.1981 C.ar    1  LIG1       -0.0181
     35 H          21.1170    9.6235   -1.2655 H       1  LIG1        0.0655
     36 C          19.5175   10.6127   -1.9528 C.ar    1  LIG1        0.1202
     37 C          18.1359   10.6669   -1.8808 C.ar    1  LIG1       -0.0181
     38 H          17.6598   11.2858   -2.3847 H       1  LIG1        0.0655
     39 C          17.4769    9.7856   -1.0461 C.ar    1  LIG1       -0.0352
     40 H          16.5483    9.8115   -1.0135 H       1  LIG1        0.0638
     41 C          19.2390    5.1170    3.9416 C.ar    1  LIG1        0.0384
     42 C          19.1123    3.7580    3.7314 C.ar    1  LIG1       -0.0368
     43 H          18.4574    3.4386    3.1533 H       1  LIG1        0.0637
     44 C          19.9389    2.8809    4.3653 C.ar    1  LIG1       -0.0182
     45 H          19.8525    1.9679    4.2109 H       1  LIG1        0.0655
     46 C          20.9122    3.3470    5.2419 C.ar    1  LIG1        0.1202
     47 C          21.0520    4.7050    5.4462 C.ar    1  LIG1       -0.0182
     48 H          21.7133    5.0241    6.0163 H       1  LIG1        0.0655
     49 C          20.2008    5.5973    4.7961 C.ar    1  LIG1       -0.0368
     50 H          20.2835    6.5129    4.9400 H       1  LIG1        0.0637
     51 C          16.2682    5.0583    4.1970 C.2     1  LIG1        0.3389
     52 C          14.4369    3.6795    4.7206 C.3     1  LIG1        0.0897
     53 H          13.5433    3.5422    4.3665 H       1  LIG1        0.0694
     54 H          14.3665    4.2336    5.5147 H       1  LIG1        0.0694
     55 C          15.0268    2.4034    5.0666 C.3     1  LIG1       -0.0306
     56 H          14.4761    1.9624    5.7191 H       1  LIG1        0.0262
     57 H          15.9041    2.5435    5.4300 H       1  LIG1        0.0262
     58 H          15.0894    1.8562    4.2794 H       1  LIG1        0.0262
     59 C          12.1153    7.2901    3.0430 C.3     1  LIG1        0.0738
     60 H          11.5972    7.4286    3.8394 H       1  LIG1        0.0482
     61 H          12.3019    6.3539    2.9420 H       1  LIG1        0.0482
     62 H          11.6222    7.6019    2.2814 H       1  LIG1        0.0482
     63 C          19.6027   12.3023   -3.6409 C.3     1  LIG1        0.0788
     64 H          20.2524   12.8000   -4.1436 H       1  LIG1        0.0660
     65 H          19.0578   12.9075   -3.1324 H       1  LIG1        0.0660
     66 H          19.0478   11.8012   -4.2423 H       1  LIG1        0.0660
     67 C          22.4025    2.7052    6.9555 C.3     1  LIG1        0.0788
     68 H          22.9036    1.9399    7.2458 H       1  LIG1        0.0660
     69 H          21.7888    2.9666    7.6452 H       1  LIG1        0.0660
     70 H          23.0053    3.4310    6.7732 H       1  LIG1        0.0660
@<TRIPOS>BOND
     1    66    63    1
     2    64    63    1
     3    63    65    1
     4    63     5    1
     5    18    17    1
     6     5    36    1
     7    20    19    1
     8    38    37    1
     9    17    19   ar
    10    17    15   ar
    11    36    37   ar
    12    36    34   ar
    13    37    39   ar
    14    19    21   ar
    15    16    15    1
    16    35    34    1
    17    34    32   ar
    18    15    13   ar
    19    39    40    1
    20    39    31   ar
    21    21    22    1
    22    21    12   ar
    23    32    31   ar
    24    32    33    1
    25    23    22    1
    26    31    30    1
    27    24    22    1
    28    22    25    1
    29    13    12   ar
    30    13    14    1
    31    30    28    1
    32    12     9    1
    33    28    11    2
    34    28    29    1
    35    25     9    1
    36    25    11    1
    37    25    26    1
    38     9     1    1
    39     2    29    2
    40    11    27    1
    41    29    10   am
    42    62    59    1
    43    61    59    1
    44    59     1    1
    45    59    60    1
    46    27    10    1
    47    27    51    1
    48    43    42    1
    49     1     4    2
    50     1     3    2
    51    10    41    1
    52     8    51    1
    53     8    52    1
    54    42    41   ar
    55    42    44   ar
    56    41    49   ar
    57    51     7    2
    58    45    44    1
    59    58    55    1
    60    44    46   ar
    61    53    52    1
    62    52    55    1
    63    52    54    1
    64    49    50    1
    65    49    47   ar
    66    55    57    1
    67    55    56    1
    68    46    47   ar
    69    46     6    1
    70    47    48    1
    71     6    67    1
    72    70    67    1
    73    67    68    1
    74    67    69    1
