@<TRIPOS>MOLECULE
?
 90 94 0 0 0
SMALL
GASTEIGER

@<TRIPOS>ATOM
      1 C           6.1978    8.2391    4.3294 C.ar    1  LIG1        0.1056
      2 C           6.2920    5.5055    4.3790 C.ar    1  LIG1        0.1263
      3 C           3.8905   10.4536    2.8088 C.3     1  LIG1        0.0697
      4 H           4.2989    9.7861    2.1861 H       1  LIG1        0.0537
      5 C           6.0961    7.5165    3.1536 C.ar    1  LIG1       -0.0332
      6 H           6.0147    7.9700    2.3229 H       1  LIG1        0.0638
      7 C           6.3545    7.5801    5.5653 C.ar    1  LIG1       -0.0332
      8 H           6.4238    8.0781    6.3700 H       1  LIG1        0.0638
      9 C           6.4065    6.1921    5.5898 C.ar    1  LIG1       -0.0296
     10 H           6.5165    5.7216    6.4082 H       1  LIG1        0.0641
     11 C           6.1134    6.1306    3.1906 C.ar    1  LIG1       -0.0296
     12 H           6.0019    5.6263    2.3924 H       1  LIG1        0.0641
     13 C           3.8272   11.8310    2.1503 C.ar    1  LIG1       -0.0278
     14 C           2.5002    9.9832    3.2644 C.3     1  LIG1        0.0788
     15 H           1.8070   10.3138    2.6234 H       1  LIG1        0.0433
     16 C           2.3796    8.4934    3.4148 C.2     1  LIG1        0.3119
     17 C           3.7141   10.4981    5.2720 C.3     1  LIG1        0.0220
     18 H           3.9319   11.2525    5.8745 H       1  LIG1        0.0444
     19 H           3.7654    9.6505    5.7826 H       1  LIG1        0.0444
     20 C           3.2206   11.9222    0.9058 C.ar    1  LIG1       -0.0570
     21 H           2.9079   11.1339    0.4776 H       1  LIG1        0.0621
     22 C           2.3201   10.6804    4.6234 C.3     1  LIG1       -0.0238
     23 H           1.6126   10.2438    5.1593 H       1  LIG1        0.0287
     24 H           2.0986   11.6382    4.5090 H       1  LIG1        0.0287
     25 C           4.2492   12.9817    2.7758 C.ar    1  LIG1       -0.0570
     26 H           4.6508   12.9330    3.6346 H       1  LIG1        0.0621
     27 C           2.7511    6.3934    2.4059 C.3     1  LIG1        0.0817
     28 H           3.0375    6.0183    1.5471 H       1  LIG1        0.0661
     29 H           1.8243    6.1285    2.5852 H       1  LIG1        0.0661
     30 H           3.3314    6.0564    3.1211 H       1  LIG1        0.0661
     31 C           3.0654   13.1682    0.2735 C.ar    1  LIG1       -0.0615
     32 H           2.6622   13.2212   -0.5852 H       1  LIG1        0.0618
     33 C           4.0902   14.2193    2.1547 C.ar    1  LIG1       -0.0615
     34 H           4.3908   15.0055    2.5920 H       1  LIG1        0.0618
     35 C           3.5024   14.3189    0.9126 C.ar    1  LIG1       -0.0617
     36 H           3.3977   15.1665    0.4955 H       1  LIG1        0.0618
     37 N           4.6161   10.4729    4.0929 N.3     1  LIG1       -0.1684
     38 N           6.3342    4.0263    4.3992 N.pl3   1  LIG1        0.0564
     39 O           6.5972   10.4810    5.5438 O.2     1  LIG1       -0.1528
     40 O           6.8390   10.3867    3.0678 O.2     1  LIG1       -0.1528
     41 O           6.8586    3.4711    5.3454 O.2     1  LIG1       -0.1261
     42 O           2.8370    7.8270    2.3545 O.3     1  LIG1       -0.4677
     43 O           1.9336    7.9403    4.3655 O.2     1  LIG1       -0.2505
     44 O           5.7901    3.4349    3.4574 O.2     1  LIG1       -0.1261
     45 S           6.1526   10.0069    4.2738 S.O2    1  LIG1        0.0614
     46 C           5.5739   10.3371    8.7131 C.ar    2  LIG2       -0.0332
     47 H           5.9160    9.8815    7.9530 H       2  LIG2        0.0638
     48 C           3.4632    7.1866    8.5059 C.3     2  LIG2        0.0697
     49 H           3.8174    7.9022    7.9037 H       2  LIG2        0.0537
     50 C           3.5567    5.8297    7.8212 C.ar    2  LIG2       -0.0278
     51 C           5.2890   11.7081    8.6593 C.ar    2  LIG2       -0.0296
     52 H           5.3877   12.1913    7.8499 H       2  LIG2        0.0641
     53 C           5.3440    9.6634    9.9064 C.ar    2  LIG2        0.1056
     54 C           3.2666    7.0906   10.9587 C.3     2  LIG2        0.0220
     55 H           3.2560    7.9255   11.4912 H       2  LIG2        0.0444
     56 H           3.5295    6.3362   11.5427 H       2  LIG2        0.0444
     57 C           1.8017    9.0190    9.0853 C.2     2  LIG2        0.3119
     58 C           4.8595   12.3418    9.8185 C.ar    2  LIG2        0.1263
     59 C           1.9946    7.5148    8.9353 C.3     2  LIG2        0.0788
     60 H           1.3353    7.1287    8.2893 H       2  LIG2        0.0433
     61 C           1.8914    6.8342   10.3006 C.3     2  LIG2       -0.0238
     62 H           1.7248    5.8636   10.1997 H       2  LIG2        0.0287
     63 H           1.1619    7.2304   10.8387 H       2  LIG2        0.0287
     64 C           4.9168   10.3244   11.0535 C.ar    2  LIG2       -0.0332
     65 H           4.7932    9.8454   11.8634 H       2  LIG2        0.0638
     66 C           2.9305    5.6729    6.5891 C.ar    2  LIG2       -0.0570
     67 H           2.4927    6.4103    6.1817 H       2  LIG2        0.0621
     68 C           2.9478    4.4353    5.9575 C.ar    2  LIG2       -0.0615
     69 H           2.5168    4.3294    5.1167 H       2  LIG2        0.0618
     70 C           1.5093   11.0660    7.9822 C.3     2  LIG2        0.0817
     71 H           1.4445   11.4263    7.0718 H       2  LIG2        0.0661
     72 H           2.2892   11.4517    8.4306 H       2  LIG2        0.0661
     73 H           0.6978   11.2928    8.4822 H       2  LIG2        0.0661
     74 C           4.2009    3.5029    7.7579 C.ar    2  LIG2       -0.0615
     75 H           4.6335    2.7591    8.1593 H       2  LIG2        0.0618
     76 C           4.1904    4.7405    8.4014 C.ar    2  LIG2       -0.0570
     77 H           4.6199    4.8380    9.2423 H       2  LIG2        0.0621
     78 C           3.5845    3.3652    6.5404 C.ar    2  LIG2       -0.0617
     79 H           3.5974    2.5260    6.0965 H       2  LIG2        0.0618
     80 C           4.6726   11.6891   11.0046 C.ar    2  LIG2       -0.0296
     81 H           4.3818   12.1574   11.7782 H       2  LIG2        0.0641
     82 N           4.1723    7.2101    9.8044 N.3     2  LIG2       -0.1684
     83 N           4.6372   13.7891    9.7580 N.pl3   2  LIG2        0.0564
     84 O           6.3786    7.5729    8.7999 O.2     2  LIG2       -0.1528
     85 O           6.0840    7.5822   11.2694 O.2     2  LIG2       -0.1528
     86 O           1.6525    9.6227    7.9218 O.3     2  LIG2       -0.4677
     87 O           1.8115    9.6030   10.1093 O.2     2  LIG2       -0.2505
     88 O           4.9266   14.3719    8.7131 O.2     2  LIG2       -0.1261
     89 O           4.0789   14.3303   10.6997 O.2     2  LIG2       -0.1261
     90 S           5.6086    7.9066    9.9535 S.O2    2  LIG2        0.0614
@<TRIPOS>BOND
     1    32    31    1
     2    31    20   ar
     3    31    35   ar
     4    21    20    1
     5    36    35    1
     6    20    13   ar
     7    35    33   ar
     8    28    27    1
     9    13    25   ar
    10    13     3    1
    11    33    34    1
    12    33    25   ar
    13     4     3    1
    14     6     5    1
    15    42    27    1
    16    42    16    1
    17    12    11    1
    18    27    29    1
    19    27    30    1
    20    15    14    1
    21    25    26    1
    22     3    14    1
    23     3    37    1
    24    40    45    2
    25     5    11   ar
    26     5     1   ar
    27    11     2   ar
    28    14    16    1
    29    14    22    1
    30    16    43    2
    31    44    38    2
    32    37    45    1
    33    37    17    1
    34    45     1    1
    35    45    39    2
    36     1     7   ar
    37     2    38    1
    38     2     9   ar
    39    38    41    2
    40    24    22    1
    41    22    23    1
    42    22    17    1
    43    69    68    1
    44    17    19    1
    45    17    18    1
    46     7     9   ar
    47     7     8    1
    48     9    10    1
    49    68    78   ar
    50    68    66   ar
    51    79    78    1
    52    67    66    1
    53    78    74   ar
    54    66    50   ar
    55    71    70    1
    56    74    75    1
    57    74    76   ar
    58    50    76   ar
    59    50    48    1
    60    52    51    1
    61    49    48    1
    62    86    70    1
    63    86    57    1
    64    47    46    1
    65    70    72    1
    66    70    73    1
    67    60    59    1
    68    76    77    1
    69    48    59    1
    70    48    82    1
    71    51    46   ar
    72    51    58   ar
    73    88    83    2
    74    46    53   ar
    75    84    90    2
    76    59    57    1
    77    59    61    1
    78    57    87    2
    79    83    58    1
    80    83    89    2
    81    82    90    1
    82    82    54    1
    83    58    80   ar
    84    53    90    1
    85    53    64   ar
    86    90    85    2
    87    62    61    1
    88    61    63    1
    89    61    54    1
    90    54    55    1
    91    54    56    1
    92    80    64   ar
    93    80    81    1
    94    64    65    1
