@<TRIPOS>MOLECULE
?
 66 68 0 0 0
SMALL
GASTEIGER

@<TRIPOS>ATOM
      1 BR          4.8114    0.9601    4.0094 Br      1  LIG1       -0.0490
      2 C           6.4476    1.9244    4.1754 C.ar    1  LIG1        0.0335
      3 C           6.8587    2.3412    5.4496 C.ar    1  LIG1        0.0010
      4 C           6.1230    2.0498    6.6483 C.ar    1  LIG1       -0.0075
      5 H           5.2850    1.6055    6.5862 H       1  LIG1        0.0662
      6 C           6.6112    2.4041    7.8823 C.ar    1  LIG1        0.1621
      7 C           7.8630    3.1150    7.9857 C.ar    1  LIG1        0.1621
      8 C           8.5506    3.4642    6.8600 C.ar    1  LIG1       -0.0080
      9 H           9.3457    3.9785    6.9391 H       1  LIG1        0.0662
     10 C           8.0942    3.0685    5.5615 C.ar    1  LIG1       -0.0048
     11 C           8.8532    3.3421    4.4030 C.ar    1  LIG1       -0.0013
     12 C           8.4463    2.8606    3.1483 C.ar    1  LIG1       -0.0048
     13 C           9.2895    2.9911    1.9983 C.ar    1  LIG1       -0.0080
     14 H          10.0957    3.4889    2.0676 H       1  LIG1        0.0662
     15 C           8.9648    2.4186    0.8093 C.ar    1  LIG1        0.1621
     16 C           7.7187    1.7147    0.6681 C.ar    1  LIG1        0.1621
     17 C           6.8731    1.5874    1.7244 C.ar    1  LIG1       -0.0075
     18 H           6.0472    1.1321    1.6100 H       1  LIG1        0.0662
     19 C           7.2095    2.1324    3.0169 C.ar    1  LIG1        0.0010
     20 C           4.7816    1.4292    9.0348 C.3     1  LIG1        0.0790
     21 H           4.1147    1.9702    8.5614 H       1  LIG1        0.0660
     22 H           4.4761    1.2595    9.9499 H       1  LIG1        0.0660
     23 H           4.9018    0.5768    8.5662 H       1  LIG1        0.0660
     24 C           9.6010    3.8399    9.4278 C.3     1  LIG1        0.0790
     25 H          10.2264    3.2204    8.9958 H       1  LIG1        0.0660
     26 H           9.8120    3.9058   10.3819 H       1  LIG1        0.0660
     27 H           9.6799    4.7250    9.0141 H       1  LIG1        0.0660
     28 C          10.9726    3.1619   -0.2178 C.3     1  LIG1        0.0790
     29 H          10.7857    4.1013   -0.0110 H       1  LIG1        0.0660
     30 H          11.4585    3.1045   -1.0673 H       1  LIG1        0.0660
     31 H          11.5183    2.7728    0.4965 H       1  LIG1        0.0660
     32 C           6.3806    0.3480   -0.7472 C.3     1  LIG1        0.0790
     33 H           6.4086   -0.3736   -0.0852 H       1  LIG1        0.0660
     34 H           6.3919   -0.0370   -1.6490 H       1  LIG1        0.0660
     35 H           5.5612    0.8717   -0.6255 H       1  LIG1        0.0660
     36 C          11.3097    2.1161    5.5822 C.2     1  LIG1        0.3375
     37 C          11.2814    3.5217    5.1137 C.ar    1  LIG1        0.0702
     38 C          12.4641    4.2717    5.2634 C.ar    1  LIG1       -0.0017
     39 H          13.2105    3.8914    5.7100 H       1  LIG1        0.0664
     40 C          12.5435    5.5572    4.7632 C.ar    1  LIG1        0.1623
     41 C          11.4207    6.1275    4.1194 C.ar    1  LIG1        0.1621
     42 C          10.2310    5.3989    4.0318 C.ar    1  LIG1       -0.0078
     43 H           9.4641    5.7989    3.6387 H       1  LIG1        0.0662
     44 C          10.1528    4.0854    4.5149 C.ar    1  LIG1        0.0009
     45 C          14.8675    5.7360    5.2670 C.3     1  LIG1        0.0790
     46 H          14.7615    5.4633    6.2017 H       1  LIG1        0.0660
     47 H          15.6061    6.3769    5.1940 H       1  LIG1        0.0660
     48 H          15.0626    4.9491    4.7170 H       1  LIG1        0.0660
     49 C          10.5420    7.9376    2.8416 C.3     1  LIG1        0.0790
     50 H          10.3232    7.3230    2.1102 H       1  LIG1        0.0660
     51 H          10.8266    8.7986    2.4704 H       1  LIG1        0.0660
     52 H           9.7502    8.0709    3.4039 H       1  LIG1        0.0660
     53 C           8.2706    7.9167   11.1547 C.3     1  LIG1        0.0970
     54 H           7.6996    8.7126   11.0087 H       1  LIG1        0.0597
     55 H           8.3150    7.7473   12.1295 H       1  LIG1        0.0597
     56 CL          9.8829    8.2448   10.5521 Cl      1  LIG1       -0.1083
     57 CL          7.5399    6.5279   10.3587 Cl      1  LIG1       -0.1083
     58 O           6.0276    2.1332    9.0713 O.3     1  LIG1       -0.4914
     59 O           8.2646    3.3553    9.2672 O.3     1  LIG1       -0.4914
     60 O           9.7388    2.4411   -0.3237 O.3     1  LIG1       -0.4914
     61 O           7.5125    1.1904   -0.5781 O.3     1  LIG1       -0.4914
     62 O          10.7233    1.2403    4.8204 O.3     1  LIG1       -0.4771
     63 H          10.8472    0.4706    5.1319 H       1  LIG1        0.2954
     64 O          11.9096    1.8157    6.6300 O.2     1  LIG1       -0.2451
     65 O          13.6567    6.3510    4.8082 O.3     1  LIG1       -0.4914
     66 O          11.5982    7.3853    3.6290 O.3     1  LIG1       -0.4914
@<TRIPOS>BOND
     1    34    32    1
     2    30    28    1
     3    32    35    1
     4    32    61    1
     5    32    33    1
     6    61    16    1
     7    60    28    1
     8    60    15    1
     9    28    29    1
    10    28    31    1
    11    16    15   ar
    12    16    17   ar
    13    15    13   ar
    14    18    17    1
    15    17    19   ar
    16    13    14    1
    17    13    12   ar
    18    50    49    1
    19    51    49    1
    20    49    52    1
    21    49    66    1
    22    19    12   ar
    23    19     2   ar
    24    12    11   ar
    25    66    41    1
    26    43    42    1
    27     1     2    1
    28    42    41   ar
    29    42    44   ar
    30    41    40   ar
    31     2     3   ar
    32    11    44    1
    33    11    10   ar
    34    44    37   ar
    35    48    45    1
    36    40    65    1
    37    40    38   ar
    38    65    45    1
    39    62    63    1
    40    62    36    1
    41    37    38   ar
    42    37    36    1
    43    47    45    1
    44    38    39    1
    45    45    46    1
    46     3    10   ar
    47     3     4   ar
    48    10     8   ar
    49    36    64    2
    50     5     4    1
    51     4     6   ar
    52     8     9    1
    53     8     7   ar
    54     6     7   ar
    55     6    58    1
    56     7    59    1
    57    21    20    1
    58    23    20    1
    59    25    24    1
    60    27    24    1
    61    20    58    1
    62    20    22    1
    63    59    24    1
    64    24    26    1
    65    57    53    1
    66    56    53    1
    67    54    53    1
    68    53    55    1
