@<TRIPOS>MOLECULE
?
 58 64 0 0 0
SMALL
GASTEIGER

@<TRIPOS>ATOM
      1 S           2.0697    2.8044    2.2524 S.O2    1  LIG1        0.0746
      2 O           3.1167    3.6077    1.6953 O.2     1  LIG1       -0.1498
      3 O           0.8688    2.6361    1.4881 O.2     1  LIG1       -0.1498
      4 C           2.7053    1.2095    2.6872 C.ar    1  LIG1        0.1164
      5 C           3.1892    0.4400    1.6158 C.ar    1  LIG1        0.0108
      6 H           3.1610    0.7503    0.7178 H       1  LIG1        0.0675
      7 C           3.7024   -0.7846    1.9453 C.ar    1  LIG1        0.1681
      8 O           4.2131   -1.7473    1.1030 O.3     1  LIG1       -0.4525
      9 C           3.7402   -1.2277    3.2476 C.ar    1  LIG1        0.1666
     10 O           4.2535   -2.5029    3.2872 O.3     1  LIG1       -0.4526
     11 C           4.7354   -2.7737    1.9667 C.3     1  LIG1        0.2332
     12 H           4.4264   -3.6655    1.6652 H       1  LIG1        0.1166
     13 H           5.7254   -2.7628    1.9534 H       1  LIG1        0.1166
     14 C           3.2623   -0.4860    4.2976 C.ar    1  LIG1       -0.0102
     15 H           3.2960   -0.8185    5.1876 H       1  LIG1        0.0659
     16 C           2.7218    0.7803    4.0188 C.ar    1  LIG1       -0.0058
     17 C           2.1478    1.6695    5.1369 C.3     1  LIG1        0.0317
     18 C           1.7932    0.9062    6.4164 C.3     1  LIG1       -0.0504
     19 H           2.6130    0.5625    6.8301 H       1  LIG1        0.0242
     20 H           1.2004    0.1576    6.1976 H       1  LIG1        0.0242
     21 H           1.3400    1.5088    7.0422 H       1  LIG1        0.0242
     22 C           0.9513    2.4478    4.5592 C.3     1  LIG1        0.0472
     23 H           0.3683    1.8613    4.0148 H       1  LIG1        0.0494
     24 H           0.4129    2.8673    5.2770 H       1  LIG1        0.0494
     25 N           1.6366    3.4821    3.7108 N.pl3   1  LIG1       -0.2093
     26 C           3.1206    2.8141    5.3517 C.2     1  LIG1       -0.0568
     27 H           3.8282    2.8234    5.9855 H       1  LIG1        0.0594
     28 C           2.8283    3.7846    4.5285 C.2     1  LIG1        0.0119
     29 H           3.3259    4.5910    4.4618 H       1  LIG1        0.0795
     30 S           6.2297    6.9288    5.3729 S.O2    2  LIG2        0.0746
     31 O           4.9726    6.4538    5.8601 O.2     2  LIG2       -0.1498
     32 O           7.0996    7.5953    6.2942 O.2     2  LIG2       -0.1498
     33 C           5.9833    7.9993    3.9721 C.ar    2  LIG2        0.1164
     34 C           5.2353    9.1633    4.2243 C.ar    2  LIG2        0.0108
     35 H           4.8777    9.3574    5.0835 H       2  LIG2        0.0675
     36 C           5.0542   10.0005    3.1542 C.ar    2  LIG2        0.1681
     37 O           4.3513   11.1798    3.1062 O.3     2  LIG2       -0.4525
     38 C           5.5532    9.7020    1.8986 C.ar    2  LIG2        0.1666
     39 O           5.1568   10.6472    1.0003 O.3     2  LIG2       -0.4526
     40 C           4.6001   11.7128    1.7972 C.3     2  LIG2        0.2332
     41 H           5.2367   12.4695    1.8506 H       2  LIG2        0.1166
     42 H           3.7572   12.0394    1.3930 H       2  LIG2        0.1166
     43 C           6.2930    8.5667    1.6385 C.ar    2  LIG2       -0.0102
     44 H           6.6354    8.3888    0.7699 H       2  LIG2        0.0659
     45 C           6.5178    7.6843    2.7099 C.ar    2  LIG2       -0.0058
     46 C           7.2980    6.3801    2.5204 C.3     2  LIG2        0.0317
     47 C           8.1418    6.3247    1.2622 C.3     2  LIG2       -0.0504
     48 H           8.7378    7.1026    1.2329 H       2  LIG2        0.0242
     49 H           7.5576    6.3312    0.4763 H       2  LIG2        0.0242
     50 H           8.6770    5.5032    1.2649 H       2  LIG2        0.0242
     51 C           8.1042    6.1187    3.8066 C.3     2  LIG2        0.0472
     52 H           8.8046    5.4350    3.6585 H       2  LIG2        0.0494
     53 H           8.5270    6.9495    4.1402 H       2  LIG2        0.0494
     54 N           7.0576    5.6250    4.7553 N.pl3   2  LIG2       -0.2093
     55 C           6.2984    5.2366    2.6138 C.2     2  LIG2       -0.0568
     56 H           5.8321    4.8560    1.8800 H       2  LIG2        0.0594
     57 C           6.1773    4.8526    3.8720 C.2     2  LIG2        0.0119
     58 H           5.5942    4.1640    4.1669 H       2  LIG2        0.0795
@<TRIPOS>BOND
     1    49    47    1
     2     6     5    1
     3    44    43    1
     4    39    40    1
     5    39    38    1
     6     8     7    1
     7     8    11    1
     8    48    47    1
     9    47    50    1
    10    47    46    1
    11    42    40    1
    12     3     1    2
    13     5     7   ar
    14     5     4   ar
    15    43    38   ar
    16    43    45   ar
    17    12    11    1
    18     2     1    2
    19    40    41    1
    20    40    37    1
    21    56    55    1
    22    38    36   ar
    23     7     9   ar
    24    13    11    1
    25    11    10    1
    26     1     4    1
    27     1    25    1
    28    46    55    1
    29    46    45    1
    30    46    51    1
    31    55    57    2
    32     4    16   ar
    33    45    33   ar
    34    37    36    1
    35    36    34   ar
    36     9    10    1
    37     9    14   ar
    38    52    51    1
    39    25    28    1
    40    25    22    1
    41    51    53    1
    42    51    54    1
    43    57    58    1
    44    57    54    1
    45    33    34   ar
    46    33    30    1
    47    23    22    1
    48    16    14   ar
    49    16    17    1
    50    34    35    1
    51    14    15    1
    52    29    28    1
    53    28    26    2
    54    22    17    1
    55    22    24    1
    56    54    30    1
    57    17    26    1
    58    17    18    1
    59    26    27    1
    60    30    31    2
    61    30    32    2
    62    20    18    1
    63    18    19    1
    64    18    21    1
