@<TRIPOS>MOLECULE
?
 35 37 0 0 0
SMALL
GASTEIGER

@<TRIPOS>ATOM
      1 C           1.4787    1.3925    3.8408 C.2     1  LIG1        0.0000
      2 C           0.6127    1.7106    4.8606 C.2     1  LIG1        0.0000
      3 H          -0.1944    1.2535    4.9282 H       1  LIG1        0.0000
      4 C           0.9149    2.7099    5.8066 C.3     1  LIG1        0.0000
      5 C           0.0137    3.1413    6.8049 C.2     1  LIG1        0.0000
      6 H          -0.8360    2.7695    6.8770 H       1  LIG1        0.0000
      7 C           2.4325    4.2922    6.6677 C.2     1  LIG1        0.0000
      8 H           3.2689    4.6933    6.6065 H       1  LIG1        0.0000
      9 N           2.1571    3.3077    5.7803 N.pl3   1  LIG1        0.0000
     10 N           1.6280    4.7327    7.6073 N.2     1  LIG1        0.0000
     11 O           2.6584    2.0105    3.7166 O.2     1  LIG1        0.0000
     12 B           3.2816    2.7002    4.8334 B       1  LIG1        0.0000
     13 F           4.0086    1.8045    5.6042 F       1  LIG1        0.0000
     14 F           4.0951    3.7133    4.3845 F       1  LIG1        0.0000
     15 CL         -0.6398    4.6365    8.9250 Cl      1  LIG1        0.0000
     16 C           1.1901    0.3997    2.8089 C.ar    1  LIG1        0.0000
     17 C           2.1757    0.0249    1.8804 C.ar    1  LIG1        0.0000
     18 H           3.0152    0.4221    1.9284 H       1  LIG1        0.0000
     19 C           1.9345   -0.9143    0.9010 C.ar    1  LIG1        0.0000
     20 H           2.6113   -1.1370    0.3040 H       1  LIG1        0.0000
     21 C           0.6711   -1.5460    0.7892 C.ar    1  LIG1        0.0000
     22 C          -0.3103   -1.1884    1.7451 C.ar    1  LIG1        0.0000
     23 H          -1.1428   -1.6014    1.7193 H       1  LIG1        0.0000
     24 C          -0.0549   -0.2411    2.7125 C.ar    1  LIG1        0.0000
     25 H          -0.7260   -0.0199    3.3178 H       1  LIG1        0.0000
     26 N           0.4195   -2.4707   -0.1869 N.pl3   1  LIG1        0.0000
     27 C           0.4253    4.1142    7.6560 C.2     1  LIG1        0.0000
     28 C           1.3893   -2.7767   -1.2215 C.3     1  LIG1        0.0000
     29 H           1.6151   -1.9736   -1.6955 H       1  LIG1        0.0000
     30 H           1.0138   -3.4150   -1.8335 H       1  LIG1        0.0000
     31 H           2.1798   -3.1446   -0.8203 H       1  LIG1        0.0000
     32 C          -0.8565   -3.1481   -0.2544 C.3     1  LIG1        0.0000
     33 H          -1.0247   -3.5974    0.5778 H       1  LIG1        0.0000
     34 H          -0.8403   -3.7911   -0.9669 H       1  LIG1        0.0000
     35 H          -1.5514   -2.5058   -0.4182 H       1  LIG1        0.0000
@<TRIPOS>BOND
     1    30    28    1
     2    29    28    1
     3    28    31    1
     4    28    26    1
     5    34    32    1
     6    35    32    1
     7    32    26    1
     8    32    33    1
     9    26    21    1
    10    20    19    1
    11    21    19   ar
    12    21    22   ar
    13    19    17   ar
    14    23    22    1
    15    22    24   ar
    16    17    18    1
    17    17    16   ar
    18    24    16   ar
    19    24    25    1
    20    16     1    1
    21    11     1    1
    22    11    12    1
    23     1     2    2
    24    14    12    1
    25    12    13    1
    26    12     9    1
    27     2     3    1
    28     2     4    1
    29     9     4    1
    30     9     7    1
    31     4     5    1
    32     8     7    1
    33     7    10    2
    34     5     6    1
    35     5    27    2
    36    10    27    1
    37    27    15    1
