@<TRIPOS>MOLECULE
?
 49 55 0 0 0
SMALL
GASTEIGER

@<TRIPOS>ATOM
      1 O           3.9383    8.2796    2.8068 O.2     1  LIG1       -0.2755
      2 N           5.1946    8.5097    4.7006 N.am    1  LIG1       -0.2862
      3 C           4.2366    8.8934    3.8227 C.2     1  LIG1        0.2172
      4 C           3.6441   10.1916    4.3401 C.3     1  LIG1        0.0333
      5 H           2.6780   10.1953    4.2573 H       1  LIG1        0.0365
      6 H           4.0068   10.9575    3.8671 H       1  LIG1        0.0365
      7 C           4.0765   10.1900    5.8137 C.3     1  LIG1        0.0189
      8 H           3.4829    9.5527    6.2636 H       1  LIG1        0.0378
      9 C           5.4630    9.4968    5.7442 C.3     1  LIG1        0.0771
     10 C           6.5898   10.4410    5.3349 C.ar    1  LIG1       -0.0190
     11 C           7.1752   10.4671    4.0727 C.ar    1  LIG1       -0.0562
     12 H           6.8707    9.8956    3.4056 H       1  LIG1        0.0621
     13 C           8.2156   11.3493    3.8116 C.ar    1  LIG1       -0.0614
     14 H           8.6086   11.3595    2.9691 H       1  LIG1        0.0618
     15 C           8.6736   12.2110    4.7871 C.ar    1  LIG1       -0.0615
     16 H           9.3763   12.7931    4.6038 H       1  LIG1        0.0618
     17 C           8.0801   12.2064    6.0454 C.ar    1  LIG1       -0.0577
     18 H           8.3834   12.7859    6.7066 H       1  LIG1        0.0621
     19 C           7.0327   11.3331    6.3117 C.ar    1  LIG1       -0.0347
     20 C           6.3022   11.2876    7.6270 C.3     1  LIG1        0.0105
     21 H           6.8167   11.8177    8.2712 H       1  LIG1        0.0398
     22 C           6.2993    9.8227    8.1234 C.3     1  LIG1       -0.0330
     23 H           5.7458    9.7645    8.9180 H       1  LIG1        0.0281
     24 H           7.2036    9.5786    8.3770 H       1  LIG1        0.0281
     25 C           5.7806    8.7968    7.0789 C.3     1  LIG1        0.0115
     26 H           4.9317    8.4505    7.4235 H       1  LIG1        0.0374
     27 C           6.7017    7.5962    6.8971 C.ar    1  LIG1       -0.0372
     28 C           7.3788    7.0628    7.9964 C.ar    1  LIG1       -0.0579
     29 H           7.2748    7.4606    8.8307 H       1  LIG1        0.0620
     30 C           8.1979    5.9604    7.8715 C.ar    1  LIG1       -0.0615
     31 H           8.6434    5.6250    8.6151 H       1  LIG1        0.0618
     32 C           8.3545    5.3573    6.6436 C.ar    1  LIG1       -0.0614
     33 H           8.9144    4.6193    6.5546 H       1  LIG1        0.0618
     34 C           7.6785    5.8495    5.5429 C.ar    1  LIG1       -0.0568
     35 H           7.7839    5.4377    4.7149 H       1  LIG1        0.0621
     36 C           6.8355    6.9647    5.6633 C.ar    1  LIG1       -0.0266
     37 C           6.1045    7.4149    4.4311 C.3     1  LIG1        0.0409
     38 H           6.7492    7.6940    3.7627 H       1  LIG1        0.0514
     39 H           5.6043    6.6682    4.0668 H       1  LIG1        0.0514
     40 C           4.9370   11.9484    7.4691 C.ar    1  LIG1       -0.0364
     41 C           4.6963   13.1290    8.1784 C.ar    1  LIG1       -0.0577
     42 H           5.3535   13.4588    8.7473 H       1  LIG1        0.0621
     43 C           3.5027   13.8199    8.0535 C.ar    1  LIG1       -0.0615
     44 H           3.3636   14.6043    8.5331 H       1  LIG1        0.0618
     45 C           2.5241   13.3398    7.2181 C.ar    1  LIG1       -0.0615
     46 H           1.7136   13.7887    7.1431 H       1  LIG1        0.0618
     47 C           2.7507   12.1839    6.4878 C.ar    1  LIG1       -0.0579
     48 H           2.0867   11.8696    5.9184 H       1  LIG1        0.0620
     49 C           3.9559   11.4792    6.5878 C.ar    1  LIG1       -0.0377
@<TRIPOS>BOND
     1     1     3    2
     2    14    13    1
     3    12    11    1
     4    38    37    1
     5    13    11   ar
     6    13    15   ar
     7     3     4    1
     8     3     2   am
     9     6     4    1
    10    39    37    1
    11    11    10   ar
    12     5     4    1
    13     4     7    1
    14    37     2    1
    15    37    36    1
    16    16    15    1
    17     2     9    1
    18    35    34    1
    19    15    17   ar
    20    10     9    1
    21    10    19   ar
    22    34    36   ar
    23    34    32   ar
    24    36    27   ar
    25     9     7    1
    26     9    25    1
    27     7     8    1
    28     7    49    1
    29    48    47    1
    30    17    19   ar
    31    17    18    1
    32    19    20    1
    33    47    49   ar
    34    47    45   ar
    35    33    32    1
    36    49    40   ar
    37    32    30   ar
    38    27    25    1
    39    27    28   ar
    40    25    26    1
    41    25    22    1
    42    46    45    1
    43    45    43   ar
    44    40    20    1
    45    40    41   ar
    46    20    22    1
    47    20    21    1
    48    30    28   ar
    49    30    31    1
    50    28    29    1
    51    43    41   ar
    52    43    44    1
    53    22    24    1
    54    22    23    1
    55    41    42    1
