@<TRIPOS>MOLECULE
?
 17 18 0 0 0
SMALL
GASTEIGER

@<TRIPOS>ATOM
      1 BR          3.5298    4.9625   -3.9348 Br      1  LIG1       -0.0409
      2 C           2.3361    5.2834   -2.5531 C.ar    1  LIG1        0.0749
      3 C           1.0939    5.8279   -2.5918 C.ar    1  LIG1        0.0495
      4 H           0.7017    6.1047   -3.3883 H       1  LIG1        0.0846
      5 C           1.2052    5.4880   -0.4166 C.ar    1  LIG1        0.1093
      6 C           0.8127    5.4906    1.0038 C.ar    1  LIG1        0.0100
      7 C          -0.4120    6.0604    1.3896 C.ar    1  LIG1       -0.0339
      8 H          -0.9792    6.4463    0.7618 H       1  LIG1        0.0639
      9 C          -0.7472    6.0308    2.7178 C.ar    1  LIG1        0.0282
     10 H          -1.5666    6.3970    2.9608 H       1  LIG1        0.0830
     11 C           1.1471    4.9710    3.2970 C.ar    1  LIG1        0.0282
     12 H           1.6895    4.5850    3.9467 H       1  LIG1        0.0830
     13 C           1.5806    4.9378    1.9867 C.ar    1  LIG1       -0.0339
     14 H           2.3936    4.5391    1.7745 H       1  LIG1        0.0639
     15 N           0.4583    5.9432   -1.3976 N.ar    1  LIG1       -0.2462
     16 N           0.0060    5.5201    3.6858 N.ar    1  LIG1       -0.2632
     17 S           2.7442    4.9113   -0.9276 S.2     1  LIG1       -0.0604
@<TRIPOS>BOND
     1     1     2    1
     2     4     3    1
     3     3     2   ar
     4     3    15   ar
     5     2    17   ar
     6    15     5   ar
     7    17     5   ar
     8     5     6    1
     9     8     7    1
    10     6     7   ar
    11     6    13   ar
    12     7     9   ar
    13    14    13    1
    14    13    11   ar
    15     9    10    1
    16     9    16   ar
    17    11    16   ar
    18    11    12    1
