@<TRIPOS>MOLECULE
?
 57 62 0 0 0
SMALL
GASTEIGER

@<TRIPOS>ATOM
      1 B           2.8812   11.0366    1.5896 B       1  LIG1        0.0000
      2 N           3.3780    9.6139    1.3682 N.pl3   1  LIG1        0.5000
      3 H           3.4173    9.2682    0.5813 H       1  LIG1        0.0000
      4 N           1.8930   10.9111    2.7853 N.pl3   1  LIG1        0.5000
      5 N           2.0741   11.5986    0.4375 N.pl3   1  LIG1        0.5000
      6 H           2.3811   11.5024   -0.3596 H       1  LIG1        0.0000
      7 C           3.7486    8.9279    2.4491 C.2     1  LIG1        0.0000
      8 N           3.3339    9.2171    3.6679 N.2     1  LIG1        0.5000
      9 C           2.2979   10.1040    3.8150 C.2     1  LIG1        0.0000
     10 C           1.6059   10.1638    5.0251 C.2     1  LIG1        0.0000
     11 H           1.8860    9.6573    5.7530 H       1  LIG1        0.0000
     12 C           0.5031   10.9829    5.1300 C.3     1  LIG1        0.0000
     13 H           0.0575   11.0492    5.9432 H       1  LIG1        0.0000
     14 C           0.0489   11.7079    4.0435 C.2     1  LIG1        0.0000
     15 H          -0.7164   12.2315    4.1169 H       1  LIG1        0.0000
     16 C           0.7456   11.6500    2.8370 C.2     1  LIG1        0.0000
     17 N           0.2645   12.3196    1.7362 N.2     1  LIG1        0.5000
     18 C           0.9128   12.2364    0.5934 C.2     1  LIG1        0.0000
     19 C           4.7037    7.7979    2.2998 C.ar    1  LIG1        0.0000
     20 C           5.0024    7.2446    1.0602 C.ar    1  LIG1        0.0000
     21 H           4.5634    7.5557    0.3011 H       1  LIG1        0.0000
     22 C           5.9445    6.2383    0.9405 C.ar    1  LIG1        0.0000
     23 H           6.1146    5.8709    0.1035 H       1  LIG1        0.0000
     24 C           6.6398    5.7673    2.0476 C.ar    1  LIG1        0.0000
     25 C           6.3217    6.3080    3.2846 C.ar    1  LIG1        0.0000
     26 H           6.7631    5.9971    4.0416 H       1  LIG1        0.0000
     27 C           5.3644    7.2966    3.4202 C.ar    1  LIG1        0.0000
     28 H           5.1598    7.6284    4.2643 H       1  LIG1        0.0000
     29 C           7.7193    4.7284    1.9049 C.3     1  LIG1        0.0000
     30 H           8.5160    5.1398    1.5629 H       1  LIG1        0.0000
     31 H           7.4265    4.0451    1.2984 H       1  LIG1        0.0000
     32 H           7.9025    4.3380    2.7631 H       1  LIG1        0.0000
     33 C           0.3305   12.9204   -0.5928 C.ar    1  LIG1        0.0000
     34 C          -0.7015   13.8425   -0.4382 C.ar    1  LIG1        0.0000
     35 H          -1.0359   14.0231    0.4109 H       1  LIG1        0.0000
     36 C          -1.2358   14.4944   -1.5398 C.ar    1  LIG1        0.0000
     37 H          -1.9179   15.1135   -1.4134 H       1  LIG1        0.0000
     38 C          -0.7751   14.2440   -2.8296 C.ar    1  LIG1        0.0000
     39 C           0.2496   13.3202   -2.9761 C.ar    1  LIG1        0.0000
     40 H           0.5800   13.1359   -3.8262 H       1  LIG1        0.0000
     41 C           0.7901   12.6670   -1.8827 C.ar    1  LIG1        0.0000
     42 H           1.4723   12.0476   -2.0114 H       1  LIG1        0.0000
     43 C          -1.3608   14.9256   -4.0360 C.3     1  LIG1        0.0000
     44 H          -0.7328   15.5668   -4.3782 H       1  LIG1        0.0000
     45 H          -2.1727   15.3744   -3.7876 H       1  LIG1        0.0000
     46 H          -1.5508   14.2711   -4.7128 H       1  LIG1        0.0000
     47 C           4.1115   12.0271    1.9808 C.ar    1  LIG1        0.0000
     48 C           5.4510   11.6489    1.8803 C.ar    1  LIG1        0.0000
     49 H           5.6536   10.7841    1.6058 H       1  LIG1        0.0000
     50 C           6.4939   12.5203    2.1754 C.ar    1  LIG1        0.0000
     51 H           7.3762   12.2443    2.0741 H       1  LIG1        0.0000
     52 C           6.2118   13.7967    2.6191 C.ar    1  LIG1        0.0000
     53 H           6.9027   14.3802    2.8331 H       1  LIG1        0.0000
     54 C           4.8905   14.2036    2.7435 C.ar    1  LIG1        0.0000
     55 H           4.6936   15.0622    3.0432 H       1  LIG1        0.0000
     56 C           3.8677   13.3332    2.4225 C.ar    1  LIG1        0.0000
     57 H           2.9879   13.6233    2.5027 H       1  LIG1        0.0000
@<TRIPOS>BOND
     1    46    43    1
     2    44    43    1
     3    43    45    1
     4    43    38    1
     5    40    39    1
     6    39    38   ar
     7    39    41   ar
     8    38    36   ar
     9    42    41    1
    10    41    33   ar
    11    36    37    1
    12    36    34   ar
    13    33    34   ar
    14    33    18    1
    15    34    35    1
    16     6     5    1
    17    23    22    1
    18    21    20    1
    19     5    18    1
    20     5     1    1
    21     3     2    1
    22    18    17    2
    23    22    20   ar
    24    22    24   ar
    25    20    19   ar
    26    31    29    1
    27     2     1    1
    28     2     7    1
    29    30    29    1
    30     1    47    1
    31     1     4    1
    32    49    48    1
    33    17    16    1
    34    48    47   ar
    35    48    50   ar
    36    29    24    1
    37    29    32    1
    38    47    56   ar
    39    24    25   ar
    40    51    50    1
    41    50    52   ar
    42    19     7    1
    43    19    27   ar
    44    56    57    1
    45    56    54   ar
    46     7     8    2
    47    52    54   ar
    48    52    53    1
    49    54    55    1
    50     4    16    1
    51     4     9    1
    52    16    14    2
    53    25    27   ar
    54    25    26    1
    55    27    28    1
    56     8     9    1
    57     9    10    2
    58    14    15    1
    59    14    12    1
    60    10    12    1
    61    10    11    1
    62    12    13    1
