@<TRIPOS>MOLECULE
?
 31 32 0 0 0
SMALL
GASTEIGER

@<TRIPOS>ATOM
      1 O           2.1261    6.9105    5.2267 O.2     1  LIG1       -0.3966
      2 O          -2.8853    0.6973    8.1754 O.2     1  LIG1       -0.1261
      3 O          -3.1508    2.3017    9.6035 O.2     1  LIG1       -0.1261
      4 N           1.1812    6.2272    6.0021 N.2     1  LIG1       -0.0842
      5 N          -2.6258    1.8189    8.6012 N.pl3   1  LIG1        0.0564
      6 C           1.1814    4.9620    5.7413 C.2     1  LIG1        0.1169
      7 C           0.2331    4.1377    6.5244 C.ar    1  LIG1        0.0042
      8 C          -0.3287    4.6123    7.7189 C.ar    1  LIG1       -0.0503
      9 H          -0.0574    5.4547    8.0636 H       1  LIG1        0.0625
     10 C          -1.2759    3.8641    8.4009 C.ar    1  LIG1       -0.0309
     11 H          -1.6683    4.1891    9.2022 H       1  LIG1        0.0640
     12 C          -1.6373    2.6264    7.8821 C.ar    1  LIG1        0.1262
     13 C          -1.0983    2.1207    6.7111 C.ar    1  LIG1       -0.0309
     14 H          -1.3646    1.2716    6.3786 H       1  LIG1        0.0640
     15 C          -0.1575    2.8867    6.0352 C.ar    1  LIG1       -0.0503
     16 H           0.2260    2.5567    5.2308 H       1  LIG1        0.0625
     17 C           2.0289    4.3274    4.6960 C.ar    1  LIG1        0.0041
     18 C           1.8860    4.7045    3.3562 C.ar    1  LIG1       -0.0524
     19 H           1.2534    5.3709    3.1151 H       1  LIG1        0.0624
     20 C           2.6694    4.1056    2.3773 C.ar    1  LIG1       -0.0611
     21 H           2.5634    4.3568    1.4669 H       1  LIG1        0.0618
     22 C           3.6097    3.1375    2.7253 C.ar    1  LIG1       -0.0617
     23 H           4.1493    2.7346    2.0553 H       1  LIG1        0.0618
     24 C           3.7561    2.7633    4.0566 C.ar    1  LIG1       -0.0611
     25 H           4.4025    2.1094    4.2971 H       1  LIG1        0.0618
     26 C           2.9571    3.3449    5.0404 C.ar    1  LIG1       -0.0524
     27 H           3.0445    3.0717    5.9465 H       1  LIG1        0.0624
     28 C           1.9354    8.3158    5.4009 C.3     1  LIG1        0.1072
     29 H           1.0049    8.5468    5.1967 H       1  LIG1        0.0687
     30 H           2.5328    8.8043    4.7974 H       1  LIG1        0.0687
     31 H           2.1372    8.5603    6.3287 H       1  LIG1        0.0687
@<TRIPOS>BOND
     1    21    20    1
     2    23    22    1
     3    20    22   ar
     4    20    18   ar
     5    22    24   ar
     6    19    18    1
     7    18    17   ar
     8    24    25    1
     9    24    26   ar
    10    17    26   ar
    11    17     6    1
    12    30    28    1
    13    26    27    1
    14    29    28    1
    15     1    28    1
    16     1     4    1
    17    16    15    1
    18    28    31    1
    19     6     4    2
    20     6     7    1
    21    15     7   ar
    22    15    13   ar
    23    14    13    1
    24     7     8   ar
    25    13    12   ar
    26     8     9    1
    27     8    10   ar
    28    12    10   ar
    29    12     5    1
    30     2     5    2
    31    10    11    1
    32     5     3    2
