@<TRIPOS>MOLECULE
?
 78 87 0 0 0
SMALL
GASTEIGER

@<TRIPOS>ATOM
      1 C          12.2924    5.7857    2.0622 C.2     1  LIG1        0.1643
      2 C          11.3257    4.6401    2.4833 C.3     1  LIG1        0.0926
      3 C          10.1758    4.9813    1.4740 C.3     1  LIG1        0.0695
      4 H          10.3262    4.5134    0.6034 H       1  LIG1        0.0419
      5 C           8.7816    4.7014    1.9885 C.2     1  LIG1        0.2317
      6 C           8.8300    7.0059    1.5994 C.2     1  LIG1        0.2317
      7 C          10.2314    6.5171    1.2792 C.3     1  LIG1        0.0695
      8 H          10.4720    6.7399    0.3346 H       1  LIG1        0.0419
      9 C          11.3516    7.0033    2.2562 C.3     1  LIG1        0.0926
     10 C          10.9541    6.6360    3.6882 C.ar    1  LIG1       -0.0162
     11 C          10.9521    5.2746    3.8293 C.ar    1  LIG1       -0.0162
     12 C          10.7016    4.6398    5.0978 C.ar    1  LIG1       -0.0125
     13 C          10.5171    3.2483    5.2576 C.ar    1  LIG1       -0.0537
     14 H          10.4917    2.6867    4.4927 H       1  LIG1        0.0624
     15 C          10.3736    2.6995    6.5083 C.ar    1  LIG1       -0.0612
     16 H          10.2142    1.7678    6.6047 H       1  LIG1        0.0618
     17 C          10.4619    3.5167    7.6420 C.ar    1  LIG1       -0.0611
     18 H          10.4351    3.1258    8.5082 H       1  LIG1        0.0618
     19 C          10.5870    4.8728    7.5126 C.ar    1  LIG1       -0.0534
     20 H          10.6344    5.4127    8.2924 H       1  LIG1        0.0624
     21 C          10.6477    5.4850    6.2427 C.ar    1  LIG1       -0.0099
     22 C          10.5800    6.9290    6.0794 C.ar    1  LIG1       -0.0099
     23 C          10.3314    7.7812    7.1747 C.ar    1  LIG1       -0.0534
     24 H          10.2831    7.4105    8.0474 H       1  LIG1        0.0624
     25 C          10.1575    9.1303    7.0094 C.ar    1  LIG1       -0.0611
     26 H          10.0053    9.6848    7.7658 H       1  LIG1        0.0618
     27 C          10.2025    9.6935    5.7343 C.ar    1  LIG1       -0.0612
     28 H          10.0590   10.6262    5.6209 H       1  LIG1        0.0618
     29 C          10.4531    8.9002    4.6436 C.ar    1  LIG1       -0.0537
     30 H          10.4835    9.2905    3.7778 H       1  LIG1        0.0624
     31 C          10.6658    7.5179    4.7879 C.ar    1  LIG1       -0.0125
     32 C          11.9303    3.2639    2.4429 C.ar    1  LIG1       -0.0289
     33 C          11.3050    2.1780    1.8337 C.ar    1  LIG1       -0.0573
     34 H          10.4389    2.2841    1.4573 H       1  LIG1        0.0621
     35 C          11.9386    0.9378    1.7715 C.ar    1  LIG1       -0.0615
     36 H          11.5039    0.2034    1.3550 H       1  LIG1        0.0618
     37 C          13.2016    0.7764    2.3159 C.ar    1  LIG1       -0.0617
     38 H          13.6372   -0.0659    2.2656 H       1  LIG1        0.0618
     39 C          13.8297    1.8495    2.9357 C.ar    1  LIG1       -0.0615
     40 H          14.6962    1.7411    3.3097 H       1  LIG1        0.0618
     41 C          13.1947    3.0729    3.0065 C.ar    1  LIG1       -0.0573
     42 H          13.6249    3.7979    3.4450 H       1  LIG1        0.0621
     43 C          11.9881    8.3445    2.0052 C.ar    1  LIG1       -0.0289
     44 C          13.1892    8.6562    2.6518 C.ar    1  LIG1       -0.0573
     45 H          13.5950    8.0124    3.2219 H       1  LIG1        0.0621
     46 C          13.7926    9.8851    2.4740 C.ar    1  LIG1       -0.0615
     47 H          14.6110   10.0804    2.9147 H       1  LIG1        0.0618
     48 C          13.2041   10.8327    1.6543 C.ar    1  LIG1       -0.0617
     49 H          13.6192   11.6784    1.5305 H       1  LIG1        0.0618
     50 C          12.0107   10.5465    1.0148 C.ar    1  LIG1       -0.0615
     51 H          11.5988   11.2000    0.4626 H       1  LIG1        0.0618
     52 C          11.4164    9.3058    1.1812 C.ar    1  LIG1       -0.0573
     53 H          10.6060    9.1095    0.7259 H       1  LIG1        0.0621
     54 C           6.6902    6.0090    2.3398 C.ar    1  LIG1        0.0861
     55 C           6.4047    6.2552    3.6763 C.ar    1  LIG1        0.1502
     56 C           5.0819    6.3433    4.0959 C.ar    1  LIG1       -0.0175
     57 H           4.8775    6.5225    5.0066 H       1  LIG1        0.0655
     58 C           4.0670    6.1675    3.1707 C.ar    1  LIG1       -0.0582
     59 H           3.1625    6.2124    3.4559 H       1  LIG1        0.0619
     60 C           4.3477    5.9276    1.8393 C.ar    1  LIG1       -0.0598
     61 H           3.6408    5.8111    1.2160 H       1  LIG1        0.0618
     62 C           5.6666    5.8576    1.4200 C.ar    1  LIG1       -0.0363
     63 H           5.8678    5.7059    0.5047 H       1  LIG1        0.0637
     64 C           7.2521    6.0910    5.8512 C.ar    1  LIG1        0.1465
     65 C           7.1165    7.0999    6.7790 C.ar    1  LIG1        0.0698
     66 H           7.1975    8.0026    6.4932 H       1  LIG1        0.0867
     67 C           6.7823    5.5603    8.4267 C.ar    1  LIG1        0.0278
     68 H           6.5820    5.3636    9.3347 H       1  LIG1        0.0829
     69 C           6.9588    4.5022    7.5596 C.ar    1  LIG1       -0.0401
     70 H           6.9161    3.6057    7.8719 H       1  LIG1        0.0634
     71 C           7.1978    4.7718    6.2346 C.ar    1  LIG1       -0.0164
     72 H           7.3219    4.0714    5.6045 H       1  LIG1        0.0655
     73 N           8.0616    5.8971    1.9368 N.am    1  LIG1       -0.2063
     74 N           6.8747    6.8450    8.0716 N.ar    1  LIG1       -0.2596
     75 O          13.4330    5.7533    1.7088 O.2     1  LIG1       -0.2948
     76 O           8.3272    3.6515    2.3649 O.2     1  LIG1       -0.2744
     77 O           8.4089    8.1357    1.5599 O.2     1  LIG1       -0.2744
     78 O           7.4821    6.4226    4.5134 O.3     1  LIG1       -0.4526
@<TRIPOS>BOND
     1     8     7    1
     2    51    50    1
     3    63    62    1
     4     4     3    1
     5    53    52    1
     6    50    52   ar
     7    50    48   ar
     8    52    43   ar
     9    61    60    1
    10     7     3    1
    11     7     6    1
    12     7     9    1
    13    36    35    1
    14    62    60   ar
    15    62    54   ar
    16    34    33    1
    17     3     5    1
    18     3     2    1
    19    49    48    1
    20    77     6    2
    21     6    73   am
    22    48    46   ar
    23    75     1    2
    24    35    33   ar
    25    35    37   ar
    26    33    32   ar
    27    60    58   ar
    28    73     5   am
    29    73    54    1
    30     5    76    2
    31    43     9    1
    32    43    44   ar
    33     1     9    1
    34     1     2    1
    35     9    10    1
    36    38    37    1
    37    37    39   ar
    38    54    55   ar
    39    32     2    1
    40    32    41   ar
    41    46    44   ar
    42    46    47    1
    43     2    11    1
    44    44    45    1
    45    39    41   ar
    46    39    40    1
    47    41    42    1
    48    58    59    1
    49    58    56   ar
    50    55    56   ar
    51    55    78    1
    52    10    11   ar
    53    10    31   ar
    54    30    29    1
    55    11    12   ar
    56    56    57    1
    57    14    13    1
    58    78    64    1
    59    29    31   ar
    60    29    27   ar
    61    31    22   ar
    62    12    13   ar
    63    12    21   ar
    64    13    15   ar
    65    72    71    1
    66    28    27    1
    67    27    25   ar
    68    64    71   ar
    69    64    65   ar
    70    22    21   ar
    71    22    23   ar
    72    71    69   ar
    73    21    19   ar
    74    66    65    1
    75    15    16    1
    76    15    17   ar
    77    65    74   ar
    78    25    23   ar
    79    25    26    1
    80    23    24    1
    81    19    17   ar
    82    19    20    1
    83    69    70    1
    84    69    67   ar
    85    17    18    1
    86    74    67   ar
    87    67    68    1
