@<TRIPOS>MOLECULE
?
 44 45 0 0 0
SMALL
GASTEIGER

@<TRIPOS>ATOM
      1 N           6.9729    0.8284   10.1662 N.3     1  LIG1       -0.2269
      2 C           7.0309    0.4363    8.7444 C.3     1  LIG1        0.0115
      3 H           7.9357    0.5762    8.4256 H       1  LIG1        0.0436
      4 H           6.4507    1.0278    8.2398 H       1  LIG1        0.0436
      5 C           6.6329   -0.9962    8.4436 C.3     1  LIG1       -0.0393
      6 H           6.9176   -1.2077    7.5403 H       1  LIG1        0.0278
      7 H           7.1198   -1.5796    9.0453 H       1  LIG1        0.0278
      8 C           5.1578   -1.3139    8.5630 C.3     1  LIG1       -0.0518
      9 H           5.0354   -2.2702    8.4499 H       1  LIG1        0.0266
     10 H           4.6846   -0.8705    7.8423 H       1  LIG1        0.0266
     11 C           4.5341   -0.8960    9.8859 C.3     1  LIG1       -0.0513
     12 H           5.0490   -1.2833   10.6109 H       1  LIG1        0.0266
     13 H           3.6356   -1.2587    9.9375 H       1  LIG1        0.0266
     14 C           4.4661    0.6181   10.0822 C.3     1  LIG1       -0.0323
     15 H           3.6818    0.8235   10.6162 H       1  LIG1        0.0284
     16 H           4.3455    1.0350    9.2154 H       1  LIG1        0.0284
     17 C           5.6900    1.2485   10.7574 C.3     1  LIG1        0.0471
     18 H           5.6927    0.9369   11.6871 H       1  LIG1        0.0521
     19 C           5.5313    2.7535   10.8036 C.ar    1  LIG1       -0.0294
     20 C           4.6410    3.3175   11.7224 C.ar    1  LIG1       -0.0570
     21 H           4.1623    2.7637   12.2964 H       1  LIG1        0.0621
     22 C           4.4633    4.6764   11.7894 C.ar    1  LIG1       -0.0615
     23 H           3.8604    5.0299   12.4023 H       1  LIG1        0.0618
     24 C           5.1587    5.5183   10.9685 C.ar    1  LIG1       -0.0617
     25 H           5.0472    6.4398   11.0345 H       1  LIG1        0.0618
     26 C           6.0155    4.9911   10.0513 C.ar    1  LIG1       -0.0615
     27 H           6.4752    5.5581    9.4757 H       1  LIG1        0.0618
     28 C           6.2131    3.6148    9.9630 C.ar    1  LIG1       -0.0570
     29 H           6.8070    3.2725    9.3351 H       1  LIG1        0.0621
     30 S           8.0843   -0.0075   11.1015 S.3     1  LIG1        0.0346
     31 O           7.3591   -0.8642   12.0862 O.3     1  LIG1       -0.1453
     32 C           8.9113    1.3006   12.1214 C.3     1  LIG1        0.0401
     33 C           9.4761    2.3479   11.1791 C.3     1  LIG1       -0.0484
     34 H           8.7580    2.8679   10.8106 H       1  LIG1        0.0244
     35 H           9.9539    1.9147   10.4686 H       1  LIG1        0.0244
     36 H          10.0736    2.9241   11.6611 H       1  LIG1        0.0244
     37 C          10.0600    0.5548   12.8015 C.3     1  LIG1       -0.0484
     38 H          10.6049    1.1791   13.2858 H       1  LIG1        0.0244
     39 H          10.5940    0.1134   12.1367 H       1  LIG1        0.0244
     40 H           9.7037   -0.0971   13.4091 H       1  LIG1        0.0244
     41 C           7.9865    1.8881   13.1589 C.3     1  LIG1       -0.0484
     42 H           7.5196    1.1801   13.6087 H       1  LIG1        0.0244
     43 H           7.3528    2.4685   12.7304 H       1  LIG1        0.0244
     44 H           8.4987    2.3898   13.7979 H       1  LIG1        0.0244
@<TRIPOS>BOND
     1     6     5    1
     2    10     8    1
     3     4     2    1
     4     3     2    1
     5     5     8    1
     6     5     2    1
     7     5     7    1
     8     9     8    1
     9     8    11    1
    10     2     1    1
    11    16    14    1
    12    29    28    1
    13    27    26    1
    14    11    13    1
    15    11    14    1
    16    11    12    1
    17    28    26   ar
    18    28    19   ar
    19    26    24   ar
    20    14    15    1
    21    14    17    1
    22     1    17    1
    23     1    30    1
    24    35    33    1
    25    17    19    1
    26    17    18    1
    27    19    20   ar
    28    34    33    1
    29    24    25    1
    30    24    22   ar
    31    30    31    1
    32    30    32    1
    33    33    36    1
    34    33    32    1
    35    20    22   ar
    36    20    21    1
    37    22    23    1
    38    32    37    1
    39    32    41    1
    40    39    37    1
    41    43    41    1
    42    37    38    1
    43    37    40    1
    44    41    42    1
    45    41    44    1
