@<TRIPOS>MOLECULE
?
 42 45 0 0 0
SMALL
GASTEIGER

@<TRIPOS>ATOM
      1 C          -3.8120    8.8930    2.8677 C.ar    1  LIG1        0.1282
      2 C          -3.3820    4.3279    2.7704 C.ar    1  LIG1        0.1923
      3 C          -4.0844    8.4780    4.1615 C.ar    1  LIG1       -0.0322
      4 H          -3.4500    7.9649    4.6369 H       1  LIG1        0.0638
      5 C          -5.2819    8.8508    4.7490 C.ar    1  LIG1       -0.0424
      6 H          -5.4732    8.5728    5.5892 H       1  LIG1        0.0631
      7 C          -3.0152    6.0403    1.3418 C.ar    1  LIG1        0.2600
      8 C          -3.3224    5.2528    0.2377 C.ar    1  LIG1        0.0751
      9 C          -3.4108    5.5082   -1.1738 C.ar    1  LIG1       -0.0227
     10 C          -6.1865    9.6293    4.0269 C.ar    1  LIG1        0.0519
     11 C          -3.1615    6.8257   -1.8574 C.3     1  LIG1       -0.0261
     12 H          -3.5352    7.5942   -1.3057 H       1  LIG1        0.0314
     13 H          -2.1673    6.9891   -1.9034 H       1  LIG1        0.0314
     14 C          -5.9085   10.0280    2.7242 C.ar    1  LIG1       -0.0424
     15 H          -6.5368   10.5929    2.2472 H       1  LIG1        0.0631
     16 C          -3.7686    6.8410   -3.2591 C.3     1  LIG1       -0.0487
     17 H          -3.4316    7.6404   -3.7792 H       1  LIG1        0.0268
     18 H          -4.7113    6.9377   -3.1659 H       1  LIG1        0.0268
     19 C          -4.7111    9.6580    2.1315 C.ar    1  LIG1       -0.0322
     20 H          -4.5299    9.9151    1.2446 H       1  LIG1        0.0638
     21 C          -3.4431    5.5619   -4.0310 C.3     1  LIG1       -0.0483
     22 H          -3.7832    5.5873   -4.9124 H       1  LIG1        0.0269
     23 H          -2.5073    5.4681   -4.1302 H       1  LIG1        0.0269
     24 C          -7.4191   10.0272    4.6741 C.1     1  LIG1        0.0992
     25 C          -3.9957    4.3116   -3.3427 C.3     1  LIG1       -0.0211
     26 H          -4.9266    4.2063   -3.5313 H       1  LIG1        0.0318
     27 H          -3.5435    3.5319   -3.6774 H       1  LIG1        0.0318
     28 C          -3.7876    4.3912   -1.8580 C.ar    1  LIG1       -0.0042
     29 C          -3.6615    3.9282    0.5824 C.ar    1  LIG1        0.1168
     30 C          -3.0523    5.1122    5.4175 C.3     1  LIG1       -0.0106
     31 H          -3.8021    5.6706    5.5437 H       1  LIG1        0.0345
     32 H          -2.3520    5.6486    5.0058 H       1  LIG1        0.0345
     33 H          -2.7679    4.8005    6.2588 H       1  LIG1        0.0345
     34 N          -3.6808    3.4358    1.8289 N.ar    1  LIG1       -0.2144
     35 N          -3.0609    5.6316    2.5880 N.ar    1  LIG1       -0.1845
     36 N          -8.3792   10.3233    5.2190 N.1     1  LIG1       -0.1909
     37 O          -2.6523    7.3509    1.0571 O.3     1  LIG1       -0.3211
     38 O          -1.4008    7.9178    3.1445 O.2     1  LIG1       -0.1313
     39 O          -1.8114    9.5379    1.3261 O.2     1  LIG1       -0.1313
     40 S          -4.0550    3.0012   -0.8235 S.2     1  LIG1       -0.0731
     41 S          -3.4192    3.6764    4.3995 S.3     1  LIG1       -0.0893
     42 S          -2.2556    8.4697    2.1536 S.O2    1  LIG1        0.1524
@<TRIPOS>BOND
     1    22    21    1
     2    23    21    1
     3    21    25    1
     4    21    16    1
     5    17    16    1
     6    27    25    1
     7    26    25    1
     8    25    28    1
     9    16    18    1
    10    16    11    1
    11    13    11    1
    12    28     9   ar
    13    28    40   ar
    14    11    12    1
    15    11     9    1
    16     9     8   ar
    17    40    29   ar
    18     8    29   ar
    19     8     7   ar
    20    29    34   ar
    21    37     7    1
    22    37    42    1
    23    20    19    1
    24    39    42    2
    25     7    35   ar
    26    34     2   ar
    27    19    14   ar
    28    19     1   ar
    29    42     1    1
    30    42    38    2
    31    15    14    1
    32    35     2   ar
    33    14    10   ar
    34     2    41    1
    35     1     3   ar
    36    10    24    1
    37    10     5   ar
    38     3     4    1
    39     3     5   ar
    40    41    30    1
    41    24    36    3
    42     5     6    1
    43    32    30    1
    44    30    31    1
    45    30    33    1
