@<TRIPOS>MOLECULE
?
 22 21 0 0 0
SMALL
GASTEIGER

@<TRIPOS>ATOM
      1 CL          4.8489    5.9146   20.2402 Cl      1  LIG1       -0.0835
      2 C           4.6280    5.9514   18.5123 C.ar    1  LIG1        0.0414
      3 C           5.1605    4.9339   17.7392 C.ar    1  LIG1       -0.0374
      4 H           5.6340    4.2164   18.1448 H       1  LIG1        0.0634
      5 C           4.9906    4.9790   16.3564 C.ar    1  LIG1        0.0049
      6 H           5.3367    4.2868   15.8050 H       1  LIG1        0.0681
      7 C           4.3102    6.0462   15.7985 C.ar    1  LIG1        0.1417
      8 C           3.7848    7.0610   16.5658 C.ar    1  LIG1        0.0049
      9 H           3.3263    7.7866   16.1582 H       1  LIG1        0.0681
     10 C           3.9374    7.0055   17.9512 C.ar    1  LIG1       -0.0374
     11 H           3.5693    7.6863   18.5030 H       1  LIG1        0.0634
     12 N           4.1751    6.0868   14.3380 N.pl3   1  LIG1       -0.4113
     13 H           3.6786    6.8116   14.0990 H       1  LIG1        0.3712
     14 H           3.7628    5.3284   14.0514 H       1  LIG1        0.3712
     15 H           5.0000    6.1462   13.9587 H       1  LIG1        0.3712
     16 P           1.5784    3.6920   13.4158 P.3     2  LIG2        0.2073
     17 O           1.1394    3.5092   11.9691 O.2     2  LIG2       -0.5174
     18 O           1.0260    5.0410   13.9898 O.3     2  LIG2       -0.3437
     19 H           0.3052    5.2348   13.6055 H       2  LIG2        0.2176
     20 O           1.0606    2.5365   14.3069 O.3     2  LIG2       -0.3437
     21 H           0.3555    2.2220   13.9762 H       2  LIG2        0.2176
     22 O           3.0708    3.7678   13.5812 O.3     2  LIG2       -0.4376
@<TRIPOS>BOND
     1    17    16    2
     2    16    22    1
     3    16    18    1
     4    16    20    1
     5    19    18    1
     6    15    12    1
     7    21    20    1
     8    14    12    1
     9    13    12    1
    10    12     7    1
    11     7     5   ar
    12     7     8   ar
    13     6     5    1
    14     9     8    1
    15     5     3   ar
    16     8    10   ar
    17     3     4    1
    18     3     2   ar
    19    10    11    1
    20    10     2   ar
    21     2     1    1
