@<TRIPOS>MOLECULE
?
 45 47 0 0 0
SMALL
GASTEIGER

@<TRIPOS>ATOM
      1 C          -0.7354    2.4006    5.4088 C.ar    1  LIG1       -0.0555
      2 H          -1.3618    2.9969    5.0165 H       1  LIG1        0.0621
      3 C          -0.4376    2.5025    6.7575 C.ar    1  LIG1       -0.0614
      4 H          -0.8550    3.1730    7.2861 H       1  LIG1        0.0618
      5 C           0.4633    1.6336    7.3345 C.ar    1  LIG1       -0.0617
      6 H           0.6736    1.7102    8.2581 H       1  LIG1        0.0618
      7 C           1.0588    0.6523    6.5707 C.ar    1  LIG1       -0.0614
      8 H           1.6703    0.0459    6.9733 H       1  LIG1        0.0618
      9 C           0.7684    0.5453    5.2142 C.ar    1  LIG1       -0.0555
     10 H           1.1799   -0.1334    4.6925 H       1  LIG1        0.0621
     11 C          -0.1202    1.4271    4.6264 C.ar    1  LIG1       -0.0100
     12 C          -0.5028    1.3517    3.1523 C.3     1  LIG1        0.1481
     13 C           0.4029    0.4312    2.3828 C.1     1  LIG1        0.0934
     14 C          -1.9428    0.8461    2.9700 C.3     1  LIG1        0.0005
     15 H          -2.5323    1.1960    3.6853 H       1  LIG1        0.0308
     16 H          -1.9727   -0.1430    2.9863 H       1  LIG1        0.0308
     17 C          -2.3731    1.3845    1.5935 C.3     1  LIG1        0.0753
     18 H          -2.1692    0.7084    0.8858 H       1  LIG1        0.0430
     19 C          -3.8476    1.6664    1.6179 C.2     1  LIG1        0.3116
     20 C          -5.9756    0.6734    1.6368 C.3     1  LIG1        0.0817
     21 H          -6.1936    1.0765    2.5027 H       1  LIG1        0.0661
     22 H          -6.3838   -0.2155    1.5769 H       1  LIG1        0.0661
     23 H          -6.3213    1.2408    0.9161 H       1  LIG1        0.0661
     24 C          -1.5102    2.6288    1.3844 C.3     1  LIG1        0.0270
     25 H          -1.0233    2.5734    0.5251 H       1  LIG1        0.0472
     26 H          -2.0714    3.4440    1.3806 H       1  LIG1        0.0472
     27 C           0.5217    3.5468    2.4653 C.ar    1  LIG1        0.0313
     28 C           0.3714    4.7869    1.8432 C.ar    1  LIG1       -0.0372
     29 H          -0.4403    4.9846    1.3918 H       1  LIG1        0.0637
     30 C           1.3814    5.7351    1.8704 C.ar    1  LIG1       -0.0182
     31 H           1.2554    6.5753    1.4445 H       1  LIG1        0.0655
     32 C           2.5769    5.4599    2.5186 C.ar    1  LIG1        0.1202
     33 C           2.7531    4.2121    3.1021 C.ar    1  LIG1       -0.0182
     34 H           3.5777    4.0051    3.5257 H       1  LIG1        0.0655
     35 C           1.7489    3.2708    3.0742 C.ar    1  LIG1       -0.0372
     36 H           1.8927    2.4219    3.4747 H       1  LIG1        0.0637
     37 C           3.5477    7.5597    1.9496 C.3     1  LIG1        0.0788
     38 H           3.4305    7.3904    0.9912 H       1  LIG1        0.0660
     39 H           4.3713    8.0711    2.0925 H       1  LIG1        0.0660
     40 H           2.7827    8.0711    2.2872 H       1  LIG1        0.0660
     41 N          -0.5730    2.6570    2.5038 N.pl3   1  LIG1       -0.3075
     42 N           1.0240   -0.2490    1.7203 N.1     1  LIG1       -0.1939
     43 O           3.6317    6.3303    2.6370 O.3     1  LIG1       -0.4951
     44 O          -4.3485    2.7368    1.7680 O.2     1  LIG1       -0.2505
     45 O          -4.5458    0.5538    1.5089 O.3     1  LIG1       -0.4677
@<TRIPOS>BOND
     1    25    24    1
     2    18    17    1
     3    23    20    1
     4    38    37    1
     5    26    24    1
     6    24    17    1
     7    24    41    1
     8    29    28    1
     9    31    30    1
    10    45    19    1
    11    45    20    1
    12    22    20    1
    13    17    19    1
    14    17    14    1
    15    19    44    2
    16    20    21    1
    17    42    13    3
    18    28    30   ar
    19    28    27   ar
    20    30    32   ar
    21    37    39    1
    22    37    40    1
    23    37    43    1
    24    13    12    1
    25    27    41    1
    26    27    35   ar
    27    41    12    1
    28    32    43    1
    29    32    33   ar
    30    14    16    1
    31    14    12    1
    32    14    15    1
    33    35    33   ar
    34    35    36    1
    35    33    34    1
    36    12    11    1
    37    11     9   ar
    38    11     1   ar
    39    10     9    1
    40     2     1    1
    41     9     7   ar
    42     1     3   ar
    43     7     8    1
    44     7     5   ar
    45     3     4    1
    46     3     5   ar
    47     5     6    1
