@<TRIPOS>MOLECULE
C21 H31 N4 O2 1+, Br 1-, 3(H2 O)
 68 68 0 0 0
SMALL
GASTEIGER

@<TRIPOS>ATOM
      1 C           1.1498    0.6927    4.8300 C.3     1  LIG1       -0.0118
      2 H           0.7345    1.5861    4.9305 H       1  LIG1        0.0831
      3 H           0.4648    0.0821    4.4604 H       1  LIG1        0.0831
      4 C           2.2902    0.7930    3.8537 C.3     1  LIG1        0.0566
      5 H           2.6155   -0.1153    3.6361 H       1  LIG1        0.0518
      6 H           1.9691    1.2119    3.0155 H       1  LIG1        0.0518
      7 C           4.2756    2.0805    3.4939 C.2     1  LIG1        0.2215
      8 C           5.5494    2.7433    3.9988 C.3     1  LIG1        0.0506
      9 H           5.3655    3.7254    4.0462 H       1  LIG1        0.0407
     10 C           5.9078    2.2953    5.4089 C.3     1  LIG1        0.0120
     11 H           6.3221    1.3969    5.3642 H       1  LIG1        0.0434
     12 H           6.5815    2.9191    5.7826 H       1  LIG1        0.0434
     13 C           4.1247    3.5703    6.5121 C.3     1  LIG1        0.0138
     14 H           3.7681    3.9112    5.6529 H       1  LIG1        0.0440
     15 H           4.7922    4.2165    6.8538 H       1  LIG1        0.0440
     16 C           3.0107    3.3961    7.5066 C.3     1  LIG1        0.0167
     17 H           3.3805    3.0601    8.3615 H       1  LIG1        0.0441
     18 H           2.5829    4.2729    7.6809 H       1  LIG1        0.0441
     19 C           0.9313    2.3467    8.0115 C.3     1  LIG1        0.0087
     20 H           0.5814    3.2484    8.2179 H       1  LIG1        0.0430
     21 H           1.2975    1.9585    8.8455 H       1  LIG1        0.0430
     22 C          -0.1708    1.4815    7.4926 C.3     1  LIG1        0.0006
     23 H          -0.5816    1.9079    6.7004 H       1  LIG1        0.0329
     24 H          -0.8686    1.3820    8.1872 H       1  LIG1        0.0329
     25 C           0.3632    0.1344    7.1202 C.3     1  LIG1       -0.0268
     26 H          -0.3572   -0.3857    6.6837 H       1  LIG1        0.0816
     27 H           0.6247   -0.3467    7.9445 H       1  LIG1        0.0816
     28 C           2.6210    1.1580    6.7562 C.3     1  LIG1        0.0705
     29 H           2.9483    0.7914    7.6265 H       1  LIG1        0.1071
     30 C           3.8189    1.2758    5.7854 C.3     1  LIG1        0.1383
     31 H           4.2816    0.3890    5.7673 H       1  LIG1        0.0745
     32 C           2.1577   -1.2401    6.1299 C.3     1  LIG1       -0.0024
     33 H           2.9878   -1.2211    5.5902 H       1  LIG1        0.0868
     34 H           2.4043   -1.5139    7.0491 H       1  LIG1        0.0868
     35 C           1.2310   -2.2737    5.5525 C.ar    1  LIG1       -0.0028
     36 C           0.1864   -2.8245    6.2862 C.ar    1  LIG1       -0.0535
     37 H           0.0537   -2.5566    7.1872 H       1  LIG1        0.0622
     38 C          -0.6545   -3.7553    5.7213 C.ar    1  LIG1       -0.0613
     39 H          -1.3819   -4.1037    6.2248 H       1  LIG1        0.0618
     40 C          -0.4460   -4.1833    4.4269 C.ar    1  LIG1       -0.0617
     41 H          -1.0352   -4.8163    4.0308 H       1  LIG1        0.0618
     42 C           0.6205   -3.6873    3.7128 C.ar    1  LIG1       -0.0613
     43 H           0.7816   -3.9967    2.8300 H       1  LIG1        0.0618
     44 C           1.4520   -2.7499    4.2693 C.ar    1  LIG1       -0.0535
     45 H           2.1885   -2.4214    3.7686 H       1  LIG1        0.0622
     46 C           6.6947    2.5508    2.9931 C.3     1  LIG1       -0.0174
     47 H           6.9444    1.5935    2.9652 H       1  LIG1        0.0295
     48 H           6.3812    2.8088    2.0907 H       1  LIG1        0.0295
     49 C           7.9079    3.3654    3.3432 C.3     1  LIG1        0.0449
     50 H           7.6290    4.2978    3.5259 H       1  LIG1        0.0557
     51 H           8.3117    3.0037    4.1717 H       1  LIG1        0.0557
     52 N           1.5639    0.1966    6.1802 N.4     1  LIG1        0.2630
     53 N           3.3929    1.5877    4.4018 N.am    1  LIG1       -0.2740
     54 N           4.7511    2.2430    6.3140 N.3     1  LIG1       -0.2766
     55 N           1.9967    2.4463    7.0003 N.3     1  LIG1       -0.2573
     56 O           4.0263    2.0390    2.2916 O.2     1  LIG1       -0.2752
     57 O           8.8913    3.3729    2.3195 O.3     1  LIG1       -0.3950
     58 H           8.6468    2.8677    1.6946 H       1  LIG1        0.2094
     59 BR          3.4730    1.4912   11.1446 Br      2  LIG2        0.0000
     60 O          10.0968    5.7204    1.5189 O.3     3  HOH3       -0.4105
     61 H           9.7407    4.9689    1.7295 H       0  HOH0        0.2052
     62 H           9.4239    6.2132    1.3948 H       0  HOH0        0.2052
     63 O           5.6205    0.9241    8.6014 O.3     4  HOH4       -0.4105
     64 H           4.9950    1.0618    9.1356 H       0  HOH0        0.2052
     65 H           5.3231    1.4434    7.9919 H       0  HOH0        0.2052
     66 O           8.6812    1.4094    0.4547 O.3     5  HOH5       -0.4105
     67 H           8.4015    1.4434   -0.3557 H       0  HOH0        0.2052
     68 H           8.3118    0.6719    0.7253 H       0  HOH0        0.2052
@<TRIPOS>BOND
     1    67    66    1
     2    66    68    1
     3    62    60    1
     4    60    61    1
     5    58    57    1
     6    48    46    1
     7    56     7    2
     8    57    49    1
     9    43    42    1
    10    47    46    1
    11    46    49    1
    12    46     8    1
    13     6     4    1
    14    49    50    1
    15    49    51    1
    16     7     8    1
    17     7    53   am
    18     5     4    1
    19    42    44   ar
    20    42    40   ar
    21    45    44    1
    22     4    53    1
    23     4     1    1
    24     8     9    1
    25     8    10    1
    26    41    40    1
    27    44    35   ar
    28    53    30    1
    29    40    38   ar
    30     3     1    1
    31     1     2    1
    32     1    52    1
    33    11    10    1
    34    10    12    1
    35    10    54    1
    36    35    32    1
    37    35    36   ar
    38    33    32    1
    39    14    13    1
    40    38    39    1
    41    38    36   ar
    42    31    30    1
    43    30    54    1
    44    30    28    1
    45    32    52    1
    46    32    34    1
    47    52    28    1
    48    52    25    1
    49    36    37    1
    50    54    13    1
    51    13    15    1
    52    13    16    1
    53    26    25    1
    54    23    22    1
    55    28    55    1
    56    28    29    1
    57    55    16    1
    58    55    19    1
    59    25    22    1
    60    25    27    1
    61    22    19    1
    62    22    24    1
    63    16    18    1
    64    16    17    1
    65    65    63    1
    66    19    20    1
    67    19    21    1
    68    63    64    1
