@<TRIPOS>MOLECULE
4029960.cif
 45 46 0 0 0
SMALL
GASTEIGER

@<TRIPOS>ATOM
      1 C           5.4028    9.8176    6.8668 C.2     1  LIG1        0.2754
      2 C           4.0711   10.5170    5.0275 C.3     1  LIG1        0.0947
      3 H           3.3380   11.1579    4.9195 H       1  LIG1        0.0588
      4 C           3.5013    9.1145    5.2562 C.3     1  LIG1        0.0280
      5 H           3.3693    8.6547    4.4122 H       1  LIG1        0.0403
      6 H           2.6526    9.1591    5.7232 H       1  LIG1        0.0403
      7 C           4.9577   10.5306    3.7804 C.2     1  LIG1        0.1557
      8 C           4.2759   10.4351    2.4289 C.3     1  LIG1        0.0227
      9 H           3.3180   10.5381    2.5430 H       1  LIG1        0.0355
     10 H           4.4402    9.5592    2.0457 H       1  LIG1        0.0355
     11 C           4.7929   11.5080    1.4844 C.3     1  LIG1        0.0310
     12 H           5.7391   11.6482    1.6439 H       1  LIG1        0.0454
     13 H           4.6846   11.2085    0.5683 H       1  LIG1        0.0454
     14 C           2.9663   13.6825    3.4747 C.3     1  LIG1        0.0582
     15 H           2.8328   14.5056    2.9976 H       1  LIG1        0.0544
     16 H           2.9935   13.8604    4.4182 H       1  LIG1        0.0544
     17 H           2.2435   13.0808    3.2837 H       1  LIG1        0.0544
     18 C           4.7385   13.8418    0.9238 C.3     1  LIG1        0.0130
     19 H           4.3180   14.6780    1.1345 H       1  LIG1        0.0414
     20 H           4.6615   13.6723   -0.0183 H       1  LIG1        0.0414
     21 H           5.6662   13.8794    1.1670 H       1  LIG1        0.0414
     22 C           5.2745   12.2212    6.4451 C.3     1  LIG1        0.0412
     23 H           5.4203   12.6539    5.5893 H       1  LIG1        0.0514
     24 H           6.1215   12.2079    6.9186 H       1  LIG1        0.0514
     25 C           4.2775   13.0361    7.2456 C.ar    1  LIG1       -0.0298
     26 C           4.2267   14.4240    7.0889 C.ar    1  LIG1       -0.0536
     27 H           4.7919   14.8361    6.4762 H       1  LIG1        0.0622
     28 C           3.3513   15.1915    7.8282 C.ar    1  LIG1       -0.0196
     29 H           3.3385   16.1139    7.7142 H       1  LIG1        0.0654
     30 C           2.4899   14.5988    8.7411 C.ar    1  LIG1        0.1201
     31 C           2.5392   13.2236    8.9211 C.ar    1  LIG1       -0.0196
     32 H           1.9806   12.8136    9.5407 H       1  LIG1        0.0654
     33 C           3.4273   12.4638    8.1710 C.ar    1  LIG1       -0.0536
     34 H           3.4504   11.5422    8.2966 H       1  LIG1        0.0622
     35 C           0.7649   14.8633   10.3686 C.3     1  LIG1        0.0788
     36 H           0.2089   14.2036    9.9466 H       1  LIG1        0.0660
     37 H           0.2141   15.5493   10.7523 H       1  LIG1        0.0660
     38 H           1.2855   14.4471   11.0608 H       1  LIG1        0.0660
     39 N           4.8371   10.8464    6.2138 N.am    1  LIG1       -0.2775
     40 N           4.0809   12.7638    1.6691 N.4     1  LIG1       -0.1909
     41 O           6.2376    9.8783    7.7454 O.2     1  LIG1       -0.2627
     42 O           6.1611   10.5624    3.8780 O.2     1  LIG1       -0.2954
     43 O           4.2107   13.0851    3.0627 O.3     1  LIG1       -0.3005
     44 O           1.6387   15.4408    9.3974 O.3     1  LIG1       -0.4951
     45 S           4.7485    8.2647    6.2647 S.3     1  LIG1       -0.0652
@<TRIPOS>BOND
     1    20    18    1
     2    13    11    1
     3    18    19    1
     4    18    21    1
     5    18    40    1
     6    11    12    1
     7    11    40    1
     8    11     8    1
     9    40    43    1
    10    10     8    1
    11     8     9    1
    12     8     7    1
    13    15    14    1
    14    43    14    1
    15    17    14    1
    16    14    16    1
    17     7    42    2
    18     7     2    1
    19     5     4    1
    20     3     2    1
    21     2     4    1
    22     2    39    1
    23     4     6    1
    24     4    45    1
    25    23    22    1
    26    39    22    1
    27    39     1   am
    28    45     1    1
    29    22    24    1
    30    22    25    1
    31    27    26    1
    32     1    41    2
    33    26    25   ar
    34    26    28   ar
    35    25    33   ar
    36    29    28    1
    37    28    30   ar
    38    33    34    1
    39    33    31   ar
    40    30    31   ar
    41    30    44    1
    42    31    32    1
    43    44    35    1
    44    36    35    1
    45    35    37    1
    46    35    38    1
