@<TRIPOS>MOLECULE
?
 106 103 0 0 0
SMALL
GASTEIGER

@<TRIPOS>ATOM
      1 C           1.8141    5.8854   15.5526 C.3     1  LIG1        0.0122
      2 H           1.2839    6.5068   16.0953 H       1  LIG1        0.0322
      3 H           2.6724    5.7161   15.9950 H       1  LIG1        0.0322
      4 H           1.3258    5.0419   15.4523 H       1  LIG1        0.0322
      5 C           2.0583    6.4867   14.1967 C.2     1  LIG1        0.2107
      6 C           3.7165    7.5483   12.6932 C.3     1  LIG1        0.1049
      7 C           3.0133    8.8922   12.5017 C.3     1  LIG1       -0.0354
      8 H           2.0427    8.7595   12.5265 H       1  LIG1        0.0255
      9 H           3.2687    9.2735   11.6357 H       1  LIG1        0.0255
     10 H           3.2781    9.5052   13.2196 H       1  LIG1        0.0255
     11 C           5.2347    7.7328   12.7384 C.3     1  LIG1       -0.0354
     12 H           5.4646    8.3705   13.4459 H       1  LIG1        0.0255
     13 H           5.5483    8.0741   11.8749 H       1  LIG1        0.0255
     14 H           5.6629    6.8705   12.9246 H       1  LIG1        0.0255
     15 C           3.4023    6.6172   11.5077 C.2     1  LIG1        0.2367
     16 C           3.1268    4.3003   10.7279 C.3     1  LIG1        0.1101
     17 C           2.9674    2.9316   11.4553 C.3     1  LIG1       -0.0171
     18 H           3.7887    2.7934   12.0081 H       1  LIG1        0.0321
     19 C           2.8791    1.7565   10.4732 C.3     1  LIG1       -0.0603
     20 H           2.6746    0.9340   10.9655 H       1  LIG1        0.0233
     21 H           3.7366    1.6544   10.0089 H       1  LIG1        0.0233
     22 H           2.1712    1.9311    9.8184 H       1  LIG1        0.0233
     23 C           1.7685    2.9007   12.4085 C.3     1  LIG1       -0.0603
     24 H           0.9382    2.9269   11.8892 H       1  LIG1        0.0233
     25 H           1.8058    3.6768   13.0048 H       1  LIG1        0.0233
     26 H           1.7964    2.0786   12.9404 H       1  LIG1        0.0233
     27 C           4.2968    4.2653    9.7369 C.3     1  LIG1       -0.0349
     28 H           4.4874    5.1740    9.4246 H       1  LIG1        0.0255
     29 H           4.0602    3.7007    8.9720 H       1  LIG1        0.0255
     30 H           5.0895    3.8987   10.1807 H       1  LIG1        0.0255
     31 C           1.8180    4.6233    9.9802 C.2     1  LIG1        0.2373
     32 C          -0.3961    5.6936    9.9741 C.3     1  LIG1        0.1050
     33 C          -1.3011    4.4738    9.8266 C.3     1  LIG1       -0.0354
     34 H          -0.8257    3.7723    9.3344 H       1  LIG1        0.0255
     35 H          -2.1110    4.7259    9.3372 H       1  LIG1        0.0255
     36 H          -1.5465    4.1403   10.7149 H       1  LIG1        0.0255
     37 C          -1.0759    6.7596   10.8435 C.3     1  LIG1       -0.0354
     38 H          -1.2778    6.3818   11.7245 H       1  LIG1        0.0255
     39 H          -1.9073    7.0503   10.4142 H       1  LIG1        0.0255
     40 H          -0.4765    7.5278   10.9469 H       1  LIG1        0.0255
     41 C          -0.1374    6.3315    8.5895 C.2     1  LIG1        0.2367
     42 C           1.3610    7.7965    7.2803 C.3     1  LIG1        0.1050
     43 C           0.3642    8.9172    6.9590 C.3     1  LIG1       -0.0354
     44 H          -0.5308    8.5362    6.8468 H       1  LIG1        0.0255
     45 H           0.6340    9.3662    6.1308 H       1  LIG1        0.0255
     46 H           0.3546    9.5656    7.6932 H       1  LIG1        0.0255
     47 C           2.7591    8.3705    7.5215 C.3     1  LIG1       -0.0354
     48 H           2.7276    9.0067    8.2675 H       1  LIG1        0.0255
     49 H           3.0672    8.8311    6.7136 H       1  LIG1        0.0255
     50 H           3.3786    7.6430    7.7390 H       1  LIG1        0.0255
     51 C           1.4694    6.8509    6.0716 C.2     1  LIG1        0.2367
     52 C           1.7735    4.5630    5.2399 C.3     1  LIG1        0.1050
     53 C           3.1196    4.7133    4.5323 C.3     1  LIG1       -0.0354
     54 H           3.2251    5.6374    4.2232 H       1  LIG1        0.0255
     55 H           3.1543    4.1052    3.7650 H       1  LIG1        0.0255
     56 H           3.8428    4.4928    5.1555 H       1  LIG1        0.0255
     57 C           1.6293    3.1653    5.8481 C.3     1  LIG1       -0.0354
     58 H           2.3462    3.0181    6.5003 H       1  LIG1        0.0255
     59 H           1.6899    2.4929    5.1383 H       1  LIG1        0.0255
     60 H           0.7609    3.0912    6.2955 H       1  LIG1        0.0255
     61 C           0.6201    4.7304    4.2340 C.2     1  LIG1        0.2367
     62 C          -1.7835    5.2233    3.9564 C.3     1  LIG1        0.1050
     63 C          -2.8605    5.8158    4.8733 C.3     1  LIG1       -0.0354
     64 H          -3.0424    5.1950    5.6095 H       1  LIG1        0.0255
     65 H          -3.6820    5.9633    4.3593 H       1  LIG1        0.0255
     66 H          -2.5467    6.6697    5.2372 H       1  LIG1        0.0255
     67 C          -2.2271    3.8660    3.3969 C.3     1  LIG1       -0.0354
     68 H          -1.5421    3.5265    2.7840 H       1  LIG1        0.0255
     69 H          -3.0737    3.9718    2.9157 H       1  LIG1        0.0255
     70 H          -2.3477    3.2330    4.1344 H       1  LIG1        0.0255
     71 C          -1.5786    6.2354    2.8090 C.2     1  LIG1        0.2364
     72 C          -0.4733    8.2782    2.0675 C.3     1  LIG1        0.0880
     73 H          -0.2091    9.0825    2.5806 H       1  LIG1        0.0558
     74 H          -1.3432    8.4772    1.6383 H       1  LIG1        0.0558
     75 C           0.5490    8.0651    0.9732 C.2     1  LIG1        0.2277
     76 N           3.2998    6.9281   13.9614 N.am    1  LIG1       -0.3021
     77 H           3.8999    6.8424   14.6002 H       1  LIG1        0.1497
     78 N           3.3986    5.3060   11.7645 N.am    1  LIG1       -0.2997
     79 H           3.5647    5.0349   12.5852 H       1  LIG1        0.1498
     80 N           0.8741    5.3376   10.6175 N.am    1  LIG1       -0.3001
     81 H           1.0219    5.5995   11.4453 H       1  LIG1        0.1498
     82 N           0.9651    7.0854    8.4973 N.am    1  LIG1       -0.3001
     83 H           1.4799    7.1570    9.2069 H       1  LIG1        0.1498
     84 N           1.6562    5.5515    6.3167 N.am    1  LIG1       -0.3001
     85 H           1.7110    5.2793    7.1519 H       1  LIG1        0.1498
     86 N          -0.5671    5.0862    4.7601 N.am    1  LIG1       -0.3001
     87 H          -0.6145    5.2428    5.6253 H       1  LIG1        0.1498
     88 N          -0.6746    7.1972    3.0041 N.am    1  LIG1       -0.3050
     89 H          -0.1811    7.1725    3.7320 H       1  LIG1        0.1493
     90 N           0.9084    6.8370    0.6821 N.am    1  LIG1       -0.3280
     91 H           1.4485    6.6851    0.0043 H       1  LIG1        0.1450
     92 H           0.6075    6.1655    1.1643 H       1  LIG1        0.1450
     93 O           1.1591    6.5493   13.3454 O.2     1  LIG1       -0.2761
     94 O           3.1931    7.0983   10.3931 O.2     1  LIG1       -0.2735
     95 O           1.6479    4.1982    8.8366 O.2     1  LIG1       -0.2734
     96 O          -0.9359    6.1801    7.6653 O.2     1  LIG1       -0.2735
     97 O           1.4189    7.3128    4.9268 O.2     1  LIG1       -0.2735
     98 O           0.7717    4.4943    3.0392 O.2     1  LIG1       -0.2735
     99 O          -2.2931    6.1871    1.8050 O.2     1  LIG1       -0.2735
    100 O           0.9435    9.0103    0.3308 O.2     1  LIG1       -0.2743
    101 O           4.5949    4.0987   14.1682 O.3     2  HOH2       -0.4105
    102 H           5.2719    4.1291   13.6707 H       0  HOH0        0.2052
    103 H           4.8663    4.4956   14.9252 H       0  HOH0        0.2052
    104 O           1.0051    3.9352    0.3237 O.3     3  HOH3       -0.4105
    105 H           0.4334    3.2302    0.0573 H       0  HOH0        0.2052
    106 H           0.9405    4.1150    1.2746 H       0  HOH0        0.2052
@<TRIPOS>BOND
     1    91    90    1
     2   105   104    1
     3   104   106    1
     4   100    75    2
     5    90    75   am
     6    90    92    1
     7    75    72    1
     8    74    72    1
     9    99    71    2
    10    72    73    1
    11    72    88    1
    12    68    67    1
    13    71    88   am
    14    71    62    1
    15    69    67    1
    16    88    89    1
    17    98    61    2
    18    67    62    1
    19    67    70    1
    20    55    53    1
    21    62    86    1
    22    62    63    1
    23    54    53    1
    24    61    86   am
    25    61    52    1
    26    65    63    1
    27    53    56    1
    28    53    52    1
    29    86    87    1
    30    63    66    1
    31    63    64    1
    32    97    51    2
    33    59    57    1
    34    52    57    1
    35    52    84    1
    36    57    60    1
    37    57    58    1
    38    51    84   am
    39    51    42    1
    40    45    43    1
    41    84    85    1
    42    49    47    1
    43    44    43    1
    44    43    42    1
    45    43    46    1
    46    42    47    1
    47    42    82    1
    48    47    50    1
    49    47    48    1
    50    96    41    2
    51    82    41   am
    52    82    83    1
    53    41    32    1
    54    95    31    2
    55    29    27    1
    56    34    33    1
    57    35    33    1
    58    28    27    1
    59    27    30    1
    60    27    16    1
    61    22    19    1
    62    33    32    1
    63    33    36    1
    64    32    80    1
    65    32    37    1
    66    31    80   am
    67    31    16    1
    68    21    19    1
    69    94    15    2
    70    39    37    1
    71    19    20    1
    72    19    17    1
    73    80    81    1
    74    16    17    1
    75    16    78    1
    76    37    40    1
    77    37    38    1
    78    17    18    1
    79    17    23    1
    80    15    78   am
    81    15     6    1
    82     9     7    1
    83    78    79    1
    84    13    11    1
    85    24    23    1
    86    23    26    1
    87    23    25    1
    88     7     8    1
    89     7     6    1
    90     7    10    1
    91     6    11    1
    92     6    76    1
    93    11    14    1
    94    11    12    1
    95    93     5    2
    96   102   101    1
    97    76     5   am
    98    76    77    1
    99   101   103    1
   100     5     1    1
   101     4     1    1
   102     1     3    1
   103     1     2    1
