@<TRIPOS>MOLECULE
?
 40 41 0 0 0
SMALL
GASTEIGER

@<TRIPOS>ATOM
      1 O           0.9800    1.1399   11.1333 O.3     1  LIG1       -0.3455
      2 O           1.4954    1.1418    8.8631 O.3     1  LIG1       -0.3455
      3 O          -1.0184    7.1055    9.2663 O.3     1  LIG1       -0.3915
      4 O           3.7515    2.0294    9.9317 O.2     1  LIG1       -0.2869
      5 C           1.3348    1.9288   10.0166 C.3     1  LIG1        0.2374
      6 C           0.2690    3.0246    9.8585 C.3     1  LIG1        0.0302
      7 C           0.5379    3.7476    8.5292 C.3     1  LIG1       -0.0417
      8 C          -0.3414    4.9633    8.2877 C.3     1  LIG1       -0.0261
      9 C          -0.2301    5.9227    9.4483 C.3     1  LIG1        0.0586
     10 C          -0.6715    5.2494   10.7438 C.3     1  LIG1       -0.0085
     11 C           0.2232    4.0140   11.0637 C.3     1  LIG1       -0.0006
     12 C           1.6189    4.4706   11.3781 C.2     1  LIG1       -0.0738
     13 C           2.7227    3.8104   11.0460 C.2     1  LIG1       -0.0171
     14 C           2.7109    2.5651   10.2840 C.2     1  LIG1        0.2148
     15 C           1.8397    0.0287   11.4280 C.3     1  LIG1        0.0401
     16 C           0.3526    0.3797    8.4706 C.3     1  LIG1        0.0401
     17 C          -2.1699    4.9398   10.7349 C.3     1  LIG1       -0.0593
     18 C          -0.3026    3.3820   12.3754 C.3     1  LIG1       -0.0553
     19 H          -0.5851    7.5544    8.6951 H       1  LIG1        0.2098
     20 H          -0.6080    2.5535    9.7688 H       1  LIG1        0.0366
     21 H           1.5266    4.0437    8.5215 H       1  LIG1        0.0271
     22 H           0.4427    3.1549    7.7637 H       1  LIG1        0.0271
     23 H          -0.0777    5.4056    7.4362 H       1  LIG1        0.0290
     24 H          -1.2830    4.6940    8.1906 H       1  LIG1        0.0290
     25 H           0.7036    6.1577    9.5582 H       1  LIG1        0.0596
     26 H          -0.4842    5.8661   11.4928 H       1  LIG1        0.0331
     27 H           1.7284    5.2730   11.9394 H       1  LIG1        0.0579
     28 H           3.5054    4.1065   11.2637 H       1  LIG1        0.0651
     29 H           2.7080    0.2707   11.5726 H       1  LIG1        0.0525
     30 H           1.7941   -0.5400   10.6794 H       1  LIG1        0.0525
     31 H           1.5159   -0.4340   12.1986 H       1  LIG1        0.0525
     32 H          -0.4460    0.8986    8.1918 H       1  LIG1        0.0525
     33 H           0.6129   -0.1577    7.7718 H       1  LIG1        0.0525
     34 H          -0.0247   -0.0572    9.1590 H       1  LIG1        0.0525
     35 H          -2.3818    4.0995   10.1992 H       1  LIG1        0.0233
     36 H          -2.4990    4.8112   11.6652 H       1  LIG1        0.0233
     37 H          -2.6819    5.7056   10.3531 H       1  LIG1        0.0233
     38 H           0.4253    2.7195   12.8002 H       1  LIG1        0.0238
     39 H          -0.4654    4.0954   13.0929 H       1  LIG1        0.0238
     40 H          -1.1468    2.9777   12.1546 H       1  LIG1        0.0238
@<TRIPOS>BOND
     1    23     8    1
     2    22     7    1
     3    33    16    1
     4    24     8    1
     5    32    16    1
     6     8     7    1
     7     8     9    1
     8    16     2    1
     9    16    34    1
    10    21     7    1
    11     7     6    1
    12    19     3    1
    13     2     5    1
    14     3     9    1
    15     9    25    1
    16     9    10    1
    17    20     6    1
    18     6     5    1
    19     6    11    1
    20     4    14    2
    21     5    14    1
    22     5     1    1
    23    35    17    1
    24    14    13    1
    25    37    17    1
    26    30    15    1
    27    17    10    1
    28    17    36    1
    29    10    11    1
    30    10    26    1
    31    13    28    1
    32    13    12    2
    33    11    12    1
    34    11    18    1
    35     1    15    1
    36    12    27    1
    37    15    29    1
    38    15    31    1
    39    40    18    1
    40    18    38    1
    41    18    39    1
