@<TRIPOS>MOLECULE
?
 43 44 0 0 0
SMALL
GASTEIGER

@<TRIPOS>ATOM
      1 CL          4.2639    4.5855    7.7978 Cl      1  LIG1       -0.0835
      2 S          -0.5081    3.6724    3.2112 S.3     1  LIG1       -0.0518
      3 O           5.8522    4.7271    1.2410 O.2     1  LIG1       -0.1317
      4 O           5.5150    6.8537    1.6639 O.2     1  LIG1       -0.1317
      5 O           1.3080    1.9321    2.2414 O.2     1  LIG1       -0.2846
      6 O          -2.3823   -1.0627    6.3690 O.3     1  LIG1       -0.4951
      7 N           5.1165    5.7141    1.3535 N.pl3   1  LIG1        0.0230
      8 C           0.8949    3.1031    2.2604 C.2     1  LIG1        0.1974
      9 C           1.5290    4.2362    1.4325 C.3     1  LIG1        0.0340
     10 H           1.1303    5.1301    1.7107 H       1  LIG1        0.0390
     11 H          -2.1052   -2.5039    7.6376 H       1  LIG1        0.0660
     12 C           3.0671    4.3067    1.7848 C.3     1  LIG1        0.0184
     13 H           3.5082    3.4239    1.4300 H       1  LIG1        0.0375
     14 C           3.6313    5.5528    1.0475 C.3     1  LIG1        0.1067
     15 H           3.5544    5.4736    0.0000 H       1  LIG1        0.0564
     16 C           1.2655    3.9527   -0.0683 C.3     1  LIG1       -0.0542
     17 H           1.5871    4.8273   -0.6403 H       1  LIG1        0.0237
     18 H           0.2955    3.8490   -0.2528 H       1  LIG1        0.0237
     19 H           1.7187    3.0338   -0.3333 H       1  LIG1        0.0237
     20 C           3.3460    4.3748    3.2980 C.ar    1  LIG1       -0.0416
     21 C           4.0924    3.3575    3.9468 C.ar    1  LIG1       -0.0568
     22 H           4.5075    2.6320    3.3821 H       1  LIG1        0.0621
     23 C           4.3733    3.4251    5.3226 C.ar    1  LIG1       -0.0431
     24 H           4.9281    2.7834    5.7626 H       1  LIG1        0.0632
     25 C           3.8970    4.4924    6.0656 C.ar    1  LIG1        0.0410
     26 C           3.1514    5.5109    5.4688 C.ar    1  LIG1       -0.0431
     27 H           2.8523    6.3238    5.9744 H       1  LIG1        0.0632
     28 C           2.8750    5.4445    4.0847 C.ar    1  LIG1       -0.0568
     29 H           2.3621    6.1724    3.6595 H       1  LIG1        0.0621
     30 C          -1.0079    2.1947    4.1064 C.ar    1  LIG1        0.0156
     31 C          -2.3335    1.7358    3.9946 C.ar    1  LIG1       -0.0444
     32 H          -2.9392    2.2302    3.2983 H       1  LIG1        0.0630
     33 C          -2.7567    0.6580    4.7661 C.ar    1  LIG1       -0.0189
     34 H          -3.5899    0.4076    4.6955 H       1  LIG1        0.0654
     35 C          -1.8634    0.0076    5.6526 C.ar    1  LIG1        0.1202
     36 C          -0.5414    0.4548    5.7594 C.ar    1  LIG1       -0.0189
     37 H           0.1392    0.0116    6.3685 H       1  LIG1        0.0654
     38 C          -0.1209    1.5594    5.0041 C.ar    1  LIG1       -0.0444
     39 H           0.7720    1.8284    5.1010 H       1  LIG1        0.0630
     40 C          -1.4593   -1.7551    7.2714 C.3     1  LIG1        0.0788
     41 H           3.1386    6.4461    1.3512 H       1  LIG1        0.0564
     42 H          -1.1331   -1.0831    8.0316 H       1  LIG1        0.0660
     43 H          -0.6412   -2.0788    6.7297 H       1  LIG1        0.0660
@<TRIPOS>BOND
     1    17    16    1
     2    19    16    1
     3    18    16    1
     4    16     9    1
     5    15    14    1
     6    14    41    1
     7    14     7    1
     8    14    12    1
     9     3     7    2
    10     7     4    2
    11    13    12    1
    12     9    10    1
    13     9    12    1
    14     9     8    1
    15    12    20    1
    16     5     8    2
    17     8     2    1
    18     2    30    1
    19    20    21   ar
    20    20    28   ar
    21    32    31    1
    22    22    21    1
    23    29    28    1
    24    21    23   ar
    25    31    30   ar
    26    31    33   ar
    27    28    26   ar
    28    30    38   ar
    29    34    33    1
    30    33    35   ar
    31    38    39    1
    32    38    36   ar
    33    23    24    1
    34    23    25   ar
    35    26    27    1
    36    26    25   ar
    37    35    36   ar
    38    35     6    1
    39    36    37    1
    40    25     1    1
    41     6    40    1
    42    43    40    1
    43    40    11    1
    44    40    42    1
