@<TRIPOS>MOLECULE
?
 43 46 0 0 0
SMALL
GASTEIGER

@<TRIPOS>ATOM
      1 O          -1.1727   10.9077    0.0939 O.3     1  LIG1       -0.3670
      2 H          -0.8443   11.3308   -0.5530 H       1  LIG1        0.2125
      3 O           0.0388   12.1327    1.6646 O.3     1  LIG1       -0.3474
      4 N           2.4119    9.3914    3.8901 N.3     1  LIG1       -0.2984
      5 C          -1.2661   11.7472    1.1968 C.3     1  LIG1        0.1565
      6 H          -1.7629   12.5714    0.9268 H       1  LIG1        0.0907
      7 C           0.8151   11.0081    2.1355 C.3     1  LIG1        0.0727
      8 H           0.8834   10.3375    1.3969 H       1  LIG1        0.0606
      9 C           2.2124   11.4579    2.5066 C.3     1  LIG1        0.0016
     10 H           2.6169   11.8989    1.7051 H       1  LIG1        0.0341
     11 C           3.0294   10.1889    2.8125 C.3     1  LIG1        0.0156
     12 H           3.0359    9.6265    1.9857 H       1  LIG1        0.0466
     13 C           4.4786   10.4948    3.1747 C.3     1  LIG1       -0.0370
     14 H           4.8983   11.0088    2.4404 H       1  LIG1        0.0280
     15 H           4.5008   11.0548    3.9909 H       1  LIG1        0.0280
     16 C           5.2775    9.2194    3.4174 C.3     1  LIG1       -0.0505
     17 H           5.3525    8.7054    2.5746 H       1  LIG1        0.0266
     18 H           6.1908    9.4487    3.7226 H       1  LIG1        0.0266
     19 C           4.5782    8.3783    4.4732 C.3     1  LIG1       -0.0401
     20 H           5.0454    7.5107    4.5674 H       1  LIG1        0.0278
     21 H           4.6170    8.8446    5.3458 H       1  LIG1        0.0278
     22 C          -2.0465   11.0513    2.2950 C.3     1  LIG1       -0.0012
     23 H          -2.8910   10.6968    1.9191 H       1  LIG1        0.0314
     24 H          -2.2801   11.7112    2.9955 H       1  LIG1        0.0314
     25 C          -1.2567    9.9006    2.9319 C.3     1  LIG1       -0.0392
     26 H          -1.1950    9.1504    2.2878 H       1  LIG1        0.0273
     27 H          -1.7387    9.5755    3.7328 H       1  LIG1        0.0273
     28 C           0.1582   10.3419    3.3350 C.3     1  LIG1        0.0103
     29 C           2.1529   12.5000    3.6396 C.3     1  LIG1       -0.0464
     30 H           3.0754   12.7603    3.8875 H       1  LIG1        0.0269
     31 H           1.6879   13.3098    3.3099 H       1  LIG1        0.0269
     32 C           1.4316   11.9833    4.8829 C.3     1  LIG1       -0.0521
     33 H           1.2702   12.7367    5.5045 H       1  LIG1        0.0266
     34 H           2.0082   11.3233    5.3447 H       1  LIG1        0.0266
     35 C           0.0956   11.3258    4.5212 C.3     1  LIG1       -0.0438
     36 H          -0.5578   12.0381    4.3063 H       1  LIG1        0.0272
     37 H          -0.2422   10.8410    5.3150 H       1  LIG1        0.0272
     38 C           3.1332    8.1358    4.0933 C.3     1  LIG1       -0.0008
     39 H           3.0981    7.6003    3.2617 H       1  LIG1        0.0427
     40 H           2.6886    7.6164    4.8102 H       1  LIG1        0.0427
     41 C           1.0015    9.1066    3.6399 C.3     1  LIG1        0.0072
     42 H           0.6237    8.6519    4.4343 H       1  LIG1        0.0433
     43 H           0.9341    8.4804    2.8767 H       1  LIG1        0.0433
@<TRIPOS>BOND
     1     2     1    1
     2     1     5    1
     3     6     5    1
     4     5     3    1
     5     5    22    1
     6     8     7    1
     7     3     7    1
     8    10     9    1
     9    23    22    1
    10    12    11    1
    11     7     9    1
    12     7    28    1
    13    26    25    1
    14    22    25    1
    15    22    24    1
    16    14    13    1
    17     9    11    1
    18     9    29    1
    19    17    16    1
    20    11    13    1
    21    11     4    1
    22    43    41    1
    23    25    28    1
    24    25    27    1
    25    13    16    1
    26    13    15    1
    27    39    38    1
    28    31    29    1
    29    28    41    1
    30    28    35    1
    31    16    18    1
    32    16    19    1
    33    29    30    1
    34    29    32    1
    35    41     4    1
    36    41    42    1
    37     4    38    1
    38    38    19    1
    39    38    40    1
    40    36    35    1
    41    19    20    1
    42    19    21    1
    43    35    32    1
    44    35    37    1
    45    32    34    1
    46    32    33    1
