@<TRIPOS>MOLECULE
C17 H13 Cl O
 32 35 0 0 0
SMALL
GASTEIGER

@<TRIPOS>ATOM
      1 CL          8.4498    8.1871    3.0282 Cl      1  LIG1       -0.0835
      2 O          12.6189    7.7936   -2.2415 O.2     1  LIG1       -0.2917
      3 C           9.6873    8.0427    1.8158 C.ar    1  LIG1        0.0413
      4 C           9.3313    8.0082    0.4834 C.ar    1  LIG1       -0.0427
      5 H           8.4369    8.0377    0.2311 H       1  LIG1        0.0632
      6 C          10.3269    7.9309   -0.4658 C.ar    1  LIG1       -0.0496
      7 H          10.1069    7.9201   -1.3690 H       1  LIG1        0.0625
      8 C          11.6550    7.8695   -0.0775 C.ar    1  LIG1        0.0212
      9 C          11.9914    7.8769    1.2834 C.ar    1  LIG1       -0.0318
     10 C          10.9971    7.9783    2.2334 C.ar    1  LIG1       -0.0393
     11 H          11.2080    8.0030    3.1394 H       1  LIG1        0.0635
     12 C          12.7703    7.8015   -1.0399 C.2     1  LIG1        0.1671
     13 C          14.1207    7.6817   -0.3964 C.3     1  LIG1        0.0300
     14 H          14.8817    7.5961   -1.0077 H       1  LIG1        0.0387
     15 C          14.0270    6.6164    0.7247 C.3     1  LIG1       -0.0352
     16 H          14.8856    6.2751    1.0216 H       1  LIG1        0.0278
     17 H          13.4064    5.8952    0.5368 H       1  LIG1        0.0278
     18 C          13.4452    7.7382    1.6227 C.3     1  LIG1       -0.0070
     19 H          13.6706    7.6983    2.5756 H       1  LIG1        0.0355
     20 C          14.2781    8.7254    0.7518 C.3     1  LIG1        0.0008
     21 H          15.2076    8.7030    1.0633 H       1  LIG1        0.0362
     22 C          13.8720   10.1580    0.5763 C.ar    1  LIG1       -0.0430
     23 C          13.3463   10.8792    1.6425 C.ar    1  LIG1       -0.0583
     24 H          13.2117   10.4579    2.4601 H       1  LIG1        0.0620
     25 C          13.0225   12.2102    1.5035 C.ar    1  LIG1       -0.0615
     26 H          12.6679   12.6775    2.2253 H       1  LIG1        0.0618
     27 C          13.2184   12.8505    0.3115 C.ar    1  LIG1       -0.0617
     28 H          13.0092   13.7536    0.2238 H       1  LIG1        0.0618
     29 C          13.7239   12.1530   -0.7518 C.ar    1  LIG1       -0.0615
     30 H          13.8519   12.5830   -1.5664 H       1  LIG1        0.0618
     31 C          14.0465   10.8148   -0.6253 C.ar    1  LIG1       -0.0583
     32 H          14.3842   10.3518   -1.3580 H       1  LIG1        0.0620
@<TRIPOS>BOND
     1     2    12    2
     2    30    29    1
     3     7     6    1
     4    32    31    1
     5    12    13    1
     6    12     8    1
     7    14    13    1
     8    29    31   ar
     9    29    27   ar
    10    31    22   ar
    11     6     8   ar
    12     6     4   ar
    13    13    15    1
    14    13    20    1
    15     8     9   ar
    16    28    27    1
    17     5     4    1
    18    27    25   ar
    19     4     3   ar
    20    17    15    1
    21    22    20    1
    22    22    23   ar
    23    15    16    1
    24    15    18    1
    25    20    21    1
    26    20    18    1
    27     9    18    1
    28     9    10   ar
    29    25    23   ar
    30    25    26    1
    31    18    19    1
    32    23    24    1
    33     3    10   ar
    34     3     1    1
    35    10    11    1
