@<TRIPOS>MOLECULE
4029471.cif
 128 132 0 0 0
SMALL
GASTEIGER

@<TRIPOS>ATOM
      1 C           5.5691    9.4630   10.7948 C.ar    1  LIG1        0.1355
      2 C           5.1581    9.9872   12.0167 C.ar    1  LIG1        0.1524
      3 C           4.8264    9.1845   13.0744 C.ar    1  LIG1       -0.0295
      4 H           4.5476    9.5562   13.8793 H       1  LIG1        0.0641
      5 C           4.9108    7.8146   12.9264 C.ar    1  LIG1       -0.0595
      6 H           4.6818    7.2576   13.6349 H       1  LIG1        0.0618
      7 C           5.3338    7.2689   11.7334 C.ar    1  LIG1       -0.0598
      8 H           5.3941    6.3452   11.6410 H       1  LIG1        0.0618
      9 C           5.6670    8.0881   10.6749 C.ar    1  LIG1       -0.0331
     10 H           5.9599    7.7138    9.8744 H       1  LIG1        0.0638
     11 C           4.6089   11.2248    7.2244 C.3     1  LIG1        0.0547
     12 C           4.0340   11.9469    8.3840 C.3     1  LIG1        0.0492
     13 H           4.5576   12.7169    8.6893 H       1  LIG1        0.0496
     14 C           3.7371   10.4069    6.3097 C.3     1  LIG1       -0.0437
     15 H           3.0547    9.9696    6.8245 H       1  LIG1        0.0248
     16 H           4.2727    9.7478    5.8640 H       1  LIG1        0.0248
     17 H           3.3282   10.9816    5.6590 H       1  LIG1        0.0248
     18 C           5.8555   11.7818    6.6012 C.3     1  LIG1       -0.0437
     19 H           5.6177   12.3880    5.8949 H       1  LIG1        0.0248
     20 H           6.3817   11.0635    6.2431 H       1  LIG1        0.0248
     21 H           6.3645   12.2493    7.2682 H       1  LIG1        0.0248
     22 C           2.5498   12.0427    8.6604 C.3     1  LIG1       -0.0461
     23 H           2.1803   12.7811    8.1725 H       1  LIG1        0.0246
     24 H           2.4074   12.1762    9.5992 H       1  LIG1        0.0246
     25 H           2.1199   11.2298    8.3860 H       1  LIG1        0.0246
     26 N           4.6797   10.6184    8.6174 N.3     1  LIG1       -0.1648
     27 N           5.0143   11.4365   12.2386 N.pl3   1  LIG1        0.0584
     28 O           6.9640    9.6630    8.6368 O.2     1  LIG1       -0.1528
     29 O           6.5825   11.7092    9.9528 O.2     1  LIG1       -0.1528
     30 O           4.1475   12.0227   11.6213 O.2     1  LIG1       -0.1261
     31 O           5.7379   11.9393   13.0710 O.2     1  LIG1       -0.1261
     32 S           6.0836   10.4714    9.4268 S.O2    1  LIG1        0.0638
     33 C           1.6003    6.7926   11.7993 C.ar    2  LIG2        0.1355
     34 C           1.8641    7.7277   10.8127 C.ar    2  LIG2        0.1524
     35 C           1.8543    9.0837   11.0728 C.ar    2  LIG2       -0.0295
     36 H           2.0667    9.6936   10.4024 H       2  LIG2        0.0641
     37 C           1.5258    9.5222   12.3363 C.ar    2  LIG2       -0.0595
     38 H           1.4981   10.4334   12.5200 H       2  LIG2        0.0618
     39 C           1.2402    8.6199   13.3218 C.ar    2  LIG2       -0.0598
     40 H           1.0081    8.9236   14.1685 H       2  LIG2        0.0618
     41 C           1.2936    7.2576   13.0727 C.ar    2  LIG2       -0.0331
     42 H           1.1244    6.6540   13.7585 H       2  LIG2        0.0638
     43 C           0.0449    3.0686   10.8891 C.3     2  LIG2        0.0547
     44 C           0.1394    3.9962    9.7385 C.3     2  LIG2        0.0492
     45 H           0.9618    3.9067    9.2117 H       2  LIG2        0.0496
     46 C          -1.3122    2.6603   11.4174 C.3     2  LIG2       -0.0437
     47 H          -1.9010    3.4177   11.4107 H       2  LIG2        0.0248
     48 H          -1.2212    2.3352   12.3150 H       2  LIG2        0.0248
     49 H          -1.6764    1.9672   10.8630 H       2  LIG2        0.0248
     50 C           1.1290    2.0491   11.1037 C.3     2  LIG2       -0.0437
     51 H           0.8392    1.1985   10.7675 H       2  LIG2        0.0248
     52 H           1.3171    1.9735   12.0426 H       2  LIG2        0.0248
     53 H           1.9231    2.3238   10.6383 H       2  LIG2        0.0248
     54 C          -1.0353    4.5065    8.9684 C.3     2  LIG2       -0.0461
     55 H          -1.2379    3.8979    8.2540 H       2  LIG2        0.0246
     56 H          -0.8289    5.3698    8.6050 H       2  LIG2        0.0246
     57 H          -1.7940    4.5784    9.5515 H       2  LIG2        0.0246
     58 N           0.3408    4.5387   11.1020 N.3     2  LIG2       -0.1648
     59 N           2.1024    7.3383    9.4304 N.pl3   2  LIG2        0.0584
     60 O           1.9954    4.5121   12.9306 O.2     2  LIG2       -0.1528
     61 O           2.8590    4.8460   10.6485 O.2     2  LIG2       -0.1528
     62 O           1.3248    6.5415    8.9263 O.2     2  LIG2       -0.1261
     63 O           3.0322    7.8524    8.8407 O.2     2  LIG2       -0.1261
     64 S           1.8208    5.0371   11.6084 S.O2    2  LIG2        0.0638
     65 C           4.3121    4.2104    4.4179 C.ar    3  LIG3        0.1355
     66 C           4.0096    4.1197    5.7741 C.ar    3  LIG3        0.1524
     67 C           3.5358    5.1871    6.4878 C.ar    3  LIG3       -0.0295
     68 H           3.3288    5.0951    7.3890 H       3  LIG3        0.0641
     69 C           3.3664    6.4095    5.8505 C.ar    3  LIG3       -0.0595
     70 H           3.0590    7.1467    6.3274 H       3  LIG3        0.0618
     71 C           3.6604    6.5229    4.5000 C.ar    3  LIG3       -0.0598
     72 H           3.5555    7.3408    4.0694 H       3  LIG3        0.0618
     73 C           4.1074    5.4290    3.7908 C.ar    3  LIG3       -0.0331
     74 H           4.2737    5.5097    2.8786 H       3  LIG3        0.0638
     75 C           7.4167    2.2092    2.6231 C.3     3  LIG3        0.0547
     76 C           7.2543    1.7202    4.0228 C.3     3  LIG3        0.0492
     77 H           6.7287    0.8985    4.1087 H       3  LIG3        0.0496
     78 C           8.5726    3.0586    2.2083 C.3     3  LIG3       -0.0437
     79 H           8.8351    3.6206    2.9404 H       3  LIG3        0.0248
     80 H           8.3167    3.6042    1.4604 H       3  LIG3        0.0248
     81 H           9.3085    2.4965    1.9575 H       3  LIG3        0.0248
     82 C           6.8556    1.3585    1.5236 C.3     3  LIG3       -0.0437
     83 H           6.6063    1.9155    0.7836 H       3  LIG3        0.0248
     84 H           6.0834    0.8885    1.8451 H       3  LIG3        0.0248
     85 H           7.5193    0.7259    1.2385 H       3  LIG3        0.0248
     86 C           8.2684    1.9294    5.1099 C.3     3  LIG3       -0.0461
     87 H           8.9722    1.2829    5.0187 H       3  LIG3        0.0246
     88 H           7.8462    1.8261    5.9651 H       3  LIG3        0.0246
     89 H           8.6362    2.8141    5.0383 H       3  LIG3        0.0246
     90 N           6.4716    2.9139    3.5824 N.3     3  LIG3       -0.1648
     91 N           4.2561    2.8872    6.5451 N.pl3   3  LIG3        0.0584
     92 O           4.5587    3.2661    2.0372 O.2     3  LIG3       -0.1528
     93 O           4.2514    1.6472    3.8793 O.2     3  LIG3       -0.1528
     94 O           5.3420    2.3445    6.4091 O.2     3  LIG3       -0.1261
     95 O           3.3808    2.5228    7.3238 O.2     3  LIG3       -0.1261
     96 S           4.8450    2.8519    3.3769 S.O2    3  LIG3        0.0638
     97 C           0.7797    8.4082    3.7523 C.ar    4  LIG4        0.1355
     98 C           0.4837    7.1102    3.3406 C.ar    4  LIG4        0.1524
     99 C           0.0081    6.1562    4.2034 C.ar    4  LIG4       -0.0295
    100 H          -0.1908    5.3005    3.8981 H       4  LIG4        0.0641
    101 C          -0.1733    6.4889    5.5467 C.ar    4  LIG4       -0.0595
    102 H          -0.4839    5.8512    6.1477 H       4  LIG4        0.0618
    103 C           0.1079    7.7604    5.9761 C.ar    4  LIG4       -0.0598
    104 H          -0.0087    7.9810    6.8722 H       4  LIG4        0.0618
    105 C           0.5656    8.7220    5.0858 C.ar    4  LIG4       -0.0331
    106 H           0.7305    9.5852    5.3866 H       4  LIG4        0.0638
    107 C           3.7604   10.5707    1.9294 C.3     4  LIG4        0.0547
    108 C           3.5981    9.2374    1.3101 C.3     4  LIG4        0.0492
    109 H           3.0208    9.2185    0.5168 H       4  LIG4        0.0496
    110 C           4.9925   10.8933    2.7270 C.3     4  LIG4       -0.0437
    111 H           5.2406   10.1309    3.2550 H       4  LIG4        0.0248
    112 H           4.8133   11.6394    3.3055 H       4  LIG4        0.0248
    113 H           5.7109   11.1164    2.1288 H       4  LIG4        0.0248
    114 C           3.1278   11.7768    1.2540 C.3     4  LIG4       -0.0437
    115 H           3.7683   12.1901    0.6684 H       4  LIG4        0.0248
    116 H           2.8507   12.4094    1.9210 H       4  LIG4        0.0248
    117 H           2.3646   11.4957    0.7442 H       4  LIG4        0.0248
    118 C           4.6579    8.1826    1.3399 C.3     4  LIG4       -0.0461
    119 H           5.3054    8.3603    0.6544 H       4  LIG4        0.0246
    120 H           4.2586    7.3231    1.1880 H       4  LIG4        0.0246
    121 H           5.0905    8.1876    2.1962 H       4  LIG4        0.0246
    122 N           2.8883    9.5333    2.6006 N.3     4  LIG4       -0.1648
    123 N           0.7073    6.6569    1.9597 N.pl3   4  LIG4        0.0584
    124 O           1.0235   10.9480    3.3957 O.2     4  LIG4       -0.1528
    125 O           0.6015    9.5365    1.4188 O.2     4  LIG4       -0.1528
    126 O           1.8115    6.8415    1.4702 O.2     4  LIG4       -0.1261
    127 O          -0.2120    6.0646    1.4056 O.2     4  LIG4       -0.1261
    128 S           1.2684    9.7385    2.6700 S.O2    4  LIG4        0.0638
@<TRIPOS>BOND
     1   109   108    1
     2   119   118    1
     3   115   114    1
     4   117   114    1
     5    83    82    1
     6   120   118    1
     7    85    82    1
     8   114   116    1
     9   114   107    1
    10   108   118    1
    11   108   107    1
    12   108   122    1
    13   118   121    1
    14   127   123    2
    15   125   128    2
    16    80    78    1
    17   126   123    2
    18    82    84    1
    19    82    75    1
    20   107   122    1
    21   107   110    1
    22    81    78    1
    23   123    98    1
    24    92    96    2
    25   113   110    1
    26    78    75    1
    27    78    79    1
    28   122   128    1
    29    75    90    1
    30    75    76    1
    31   128   124    2
    32   128    97    1
    33   110   111    1
    34   110   112    1
    35    74    73    1
    36    98    97   ar
    37    98    99   ar
    38    96    90    1
    39    96    93    2
    40    96    65    1
    41    90    76    1
    42    97   105   ar
    43    73    65   ar
    44    73    71   ar
    45   100    99    1
    46    76    77    1
    47    76    86    1
    48    72    71    1
    49    99   101   ar
    50    65    66   ar
    51    71    69   ar
    52    87    86    1
    53    89    86    1
    54   105   106    1
    55   105   103   ar
    56    86    88    1
    57   101   103   ar
    58   101   102    1
    59    17    14    1
    60    66    67   ar
    61    66    91    1
    62    69    70    1
    63    69    67   ar
    64    16    14    1
    65    19    18    1
    66   103   104    1
    67    20    18    1
    68    14    15    1
    69    14    11    1
    70    94    91    2
    71    67    68    1
    72    91    95    2
    73    18    11    1
    74    18    21    1
    75    11    12    1
    76    11    26    1
    77    23    22    1
    78    55    54    1
    79    12    26    1
    80    12    22    1
    81    12    13    1
    82    25    22    1
    83    56    54    1
    84    26    32    1
    85    28    32    2
    86    22    24    1
    87    63    59    2
    88    62    59    2
    89    54    57    1
    90    54    44    1
    91    45    44    1
    92    32    29    2
    93    32     1    1
    94    59    34    1
    95    44    43    1
    96    44    58    1
    97    10     9    1
    98    36    35    1
    99    53    50    1
   100    61    64    2
   101     9     1   ar
   102     9     7   ar
   103    51    50    1
   104     1     2   ar
   105    34    35   ar
   106    34    33   ar
   107    49    46    1
   108    43    58    1
   109    43    50    1
   110    43    46    1
   111    35    37   ar
   112    58    64    1
   113    50    52    1
   114    47    46    1
   115    46    48    1
   116    64    33    1
   117    64    60    2
   118    30    27    2
   119     8     7    1
   120     7     5   ar
   121    33    41   ar
   122     2    27    1
   123     2     3   ar
   124    27    31    2
   125    37    38    1
   126    37    39   ar
   127     5     3   ar
   128     5     6    1
   129    41    39   ar
   130    41    42    1
   131     3     4    1
   132    39    40    1
