@<TRIPOS>MOLECULE
C17 H20 N2 O2 S
 42 44 0 0 0
SMALL
GASTEIGER

@<TRIPOS>ATOM
      1 S           4.2829    3.5237   10.5695 S.O2    1  LIG1        0.0748
      2 O           4.8524    4.6481    9.8811 O.2     1  LIG1       -0.1498
      3 O           5.0222    2.8807   11.6203 O.2     1  LIG1       -0.1498
      4 N           3.9942    2.3694    9.4482 N.pl3   1  LIG1       -0.2012
      5 N           1.1858    1.9518    9.1692 N.pl3   1  LIG1       -0.3314
      6 C           1.5434    0.5454    9.4621 C.3     1  LIG1        0.0134
      7 C           2.7470    0.4089   10.3773 C.3     1  LIG1       -0.0197
      8 C           4.0169    0.9413    9.8231 C.3     1  LIG1        0.0365
      9 C           3.2865    2.7548    8.2539 C.ar    1  LIG1        0.0722
     10 C           4.0102    3.3824    7.2508 C.ar    1  LIG1       -0.0373
     11 C           3.3723    3.8812    6.1238 C.ar    1  LIG1       -0.0598
     12 C           2.0164    3.7242    6.0172 C.ar    1  LIG1       -0.0599
     13 C           1.2928    3.0678    6.9843 C.ar    1  LIG1       -0.0388
     14 C           1.9001    2.5683    8.1300 C.ar    1  LIG1        0.0524
     15 C           2.7367    4.0765   11.2266 C.ar    1  LIG1        0.1087
     16 C           2.2731    3.5630   12.4261 C.ar    1  LIG1       -0.0348
     17 C           1.0732    4.0315   12.9336 C.ar    1  LIG1       -0.0570
     18 C           0.3316    5.0022   12.2849 C.ar    1  LIG1       -0.0503
     19 C           0.8203    5.4881   11.0793 C.ar    1  LIG1       -0.0570
     20 C           2.0111    5.0370   10.5505 C.ar    1  LIG1       -0.0348
     21 C          -0.9527    5.5154   12.8697 C.3     1  LIG1       -0.0397
     22 C          -0.2619    2.1874    9.1983 C.3     1  LIG1        0.0007
     23 H           4.2484    0.4181    8.8853 H       1  LIG1        0.0483
     24 H           4.7755    0.7819   10.4319 H       1  LIG1        0.0483
     25 H           2.5252    0.9360   11.2698 H       1  LIG1        0.0296
     26 H           2.8166   -0.5869   10.4705 H       1  LIG1        0.0296
     27 H           0.7834    0.0829    9.8484 H       1  LIG1        0.0464
     28 H           1.7745    0.1346    8.6135 H       1  LIG1        0.0464
     29 H           0.4258    3.0203    6.9137 H       1  LIG1        0.0637
     30 H           1.5352    4.0933    5.3152 H       1  LIG1        0.0618
     31 H           3.8639    4.2743    5.5017 H       1  LIG1        0.0618
     32 H           4.9951    3.5027    7.3493 H       1  LIG1        0.0637
     33 H          -0.6015    1.9673   10.0682 H       1  LIG1        0.0428
     34 H          -0.4323    3.1141    9.0132 H       1  LIG1        0.0428
     35 H          -0.6998    1.6440    8.5389 H       1  LIG1        0.0428
     36 H           2.8392    2.9395   12.8524 H       1  LIG1        0.0637
     37 H           0.7571    3.6675   13.7542 H       1  LIG1        0.0621
     38 H           0.2712    6.1089   10.5931 H       1  LIG1        0.0621
     39 H           2.3602    5.3504    9.7405 H       1  LIG1        0.0637
     40 H          -0.8848    6.4595   13.0309 H       1  LIG1        0.0278
     41 H          -1.6752    5.3466   12.2609 H       1  LIG1        0.0278
     42 H          -1.1197    5.0616   13.6996 H       1  LIG1        0.0278
@<TRIPOS>BOND
     1    30    12    1
     2    31    11    1
     3    12    11   ar
     4    12    13   ar
     5    11    10   ar
     6    29    13    1
     7    13    14   ar
     8    10    32    1
     9    10     9   ar
    10    14     9   ar
    11    14     5    1
    12     9     4    1
    13    35    22    1
    14    28     6    1
    15    23     8    1
    16    34    22    1
    17     5    22    1
    18     5     6    1
    19    22    33    1
    20     4     8    1
    21     4     1    1
    22     6    27    1
    23     6     7    1
    24    39    20    1
    25     8     7    1
    26     8    24    1
    27     2     1    2
    28     7    26    1
    29     7    25    1
    30    20    19   ar
    31    20    15   ar
    32     1    15    1
    33     1     3    2
    34    38    19    1
    35    19    18   ar
    36    15    16   ar
    37    41    21    1
    38    18    21    1
    39    18    17   ar
    40    16    36    1
    41    16    17   ar
    42    21    40    1
    43    21    42    1
    44    17    37    1
