@<TRIPOS>MOLECULE
?
 61 65 0 0 0
SMALL
GASTEIGER

@<TRIPOS>ATOM
      1 C          16.4405    1.5159   10.1804 C.ar    1  LIG1       -0.0180
      2 C          16.3950    1.5199   12.5951 C.ar    1  LIG1       -0.0196
      3 H          16.1481    1.0988   13.4094 H       1  LIG1        0.0654
      4 C          17.0603    2.7447   12.6135 C.ar    1  LIG1        0.1201
      5 C          17.0960    2.7444   10.2249 C.ar    1  LIG1       -0.0526
      6 H          17.3345    3.1713    9.4110 H       1  LIG1        0.0622
      7 C          17.4078    3.3601   11.4277 C.ar    1  LIG1       -0.0196
      8 H          17.8573    4.1980   11.4363 H       1  LIG1        0.0654
      9 C          16.0973    0.9212   11.3868 C.ar    1  LIG1       -0.0526
     10 H          15.6478    0.0841   11.3818 H       1  LIG1        0.0622
     11 C          18.1995   -0.8874    8.9645 C.ar    1  LIG1       -0.0407
     12 C          16.2564    0.7860    8.8870 C.3     1  LIG1        0.0918
     13 H          15.6478    0.0060    9.0367 H       1  LIG1        0.0653
     14 C          17.5612    0.2897    8.2690 C.3     1  LIG1        0.0241
     15 H          18.2146    1.0458    8.2859 H       1  LIG1        0.0384
     16 C          20.1439   -1.9142    9.9724 C.ar    1  LIG1       -0.0262
     17 H          21.0673   -1.8882   10.1974 H       1  LIG1        0.0646
     18 C          19.5434   -0.8584    9.3103 C.ar    1  LIG1       -0.0555
     19 H          20.0627   -0.0952    9.0865 H       1  LIG1        0.0621
     20 C          19.3714   -2.9990   10.2955 C.ar    1  LIG1        0.1234
     21 C          17.4664   -2.0284    9.2821 C.ar    1  LIG1       -0.0555
     22 H          16.5504   -2.0785    9.0320 H       1  LIG1        0.0621
     23 C          18.0441   -3.0852    9.9523 C.ar    1  LIG1       -0.0262
     24 H          17.5347   -3.8565   10.1714 H       1  LIG1        0.0646
     25 C          17.7278    4.6258   13.9261 C.3     1  LIG1        0.0788
     26 H          18.6087    4.7410   13.5113 H       1  LIG1        0.0660
     27 H          17.7695    4.9052   14.8638 H       1  LIG1        0.0660
     28 H          17.0691    5.1747   13.4521 H       1  LIG1        0.0660
     29 O          17.3423    3.2491   13.8552 O.3     1  LIG1       -0.4951
     30 F          19.9309   -4.0398   10.9725 F       1  LIG1       -0.2055
     31 C          15.2691    1.8061    4.3282 C.ar    1  LIG1       -0.0526
     32 H          16.0072    2.3840    4.1737 H       1  LIG1        0.0622
     33 C          18.2986   -0.1224    5.8704 C.ar    1  LIG1       -0.0407
     34 C          13.2271    0.8195    3.5602 C.ar    1  LIG1        0.1201
     35 C          13.1121    0.1453    4.7730 C.ar    1  LIG1       -0.0196
     36 H          12.3704   -0.4287    4.9293 H       1  LIG1        0.0654
     37 C          20.5288   -0.5760    4.3199 C.ar    1  LIG1        0.1234
     38 C          19.1960    0.9072    5.5857 C.ar    1  LIG1       -0.0555
     39 H          19.0314    1.7760    5.9337 H       1  LIG1        0.0621
     40 C          14.0763    0.3113    5.7487 C.ar    1  LIG1       -0.0526
     41 H          13.9918   -0.1513    6.5733 H       1  LIG1        0.0622
     42 C          19.6730   -1.6197    4.5551 C.ar    1  LIG1       -0.0262
     43 H          19.8401   -2.4812    4.1903 H       1  LIG1        0.0646
     44 C          14.3114    1.6440    3.3281 C.ar    1  LIG1       -0.0196
     45 H          14.4022    2.0945    2.4967 H       1  LIG1        0.0654
     46 C          18.5530   -1.3825    5.3410 C.ar    1  LIG1       -0.0555
     47 H          17.9492   -2.0945    5.5192 H       1  LIG1        0.0621
     48 C          20.3214    0.6902    4.8071 C.ar    1  LIG1       -0.0262
     49 H          20.9285    1.3953    4.6167 H       1  LIG1        0.0646
     50 C          15.1708    1.1477    5.5388 C.ar    1  LIG1       -0.0180
     51 C          17.1361    0.0707    6.8092 C.3     1  LIG1        0.0241
     52 H          16.5565   -0.7432    6.7675 H       1  LIG1        0.0384
     53 C          12.2056    1.3993    1.4698 C.3     1  LIG1        0.0788
     54 H          12.1744    2.3509    1.7031 H       1  LIG1        0.0660
     55 H          11.4209    1.1700    0.9285 H       1  LIG1        0.0660
     56 H          13.0218    1.2150    0.9593 H       1  LIG1        0.0660
     57 C          16.2547    1.3112    6.5716 C.3     1  LIG1        0.0918
     58 H          16.8465    2.0665    6.2890 H       1  LIG1        0.0653
     59 O          12.2050    0.6180    2.6641 O.3     1  LIG1       -0.4951
     60 F          21.6485   -0.8079    3.5773 F       1  LIG1       -0.2055
     61 O          15.6889    1.6374    7.8671 O.3     1  LIG1       -0.3629
@<TRIPOS>BOND
     1    55    53    1
     2    56    53    1
     3    53    54    1
     4    53    59    1
     5    45    44    1
     6    59    34    1
     7    44    34   ar
     8    44    31   ar
     9    34    35   ar
    10    60    37    1
    11    32    31    1
    12    43    42    1
    13    37    42   ar
    14    37    48   ar
    15    31    50   ar
    16    42    46   ar
    17    49    48    1
    18    35    36    1
    19    35    40   ar
    20    48    38   ar
    21    46    47    1
    22    46    33   ar
    23    50    40   ar
    24    50    57    1
    25    38    33   ar
    26    38    39    1
    27    40    41    1
    28    33    51    1
    29    58    57    1
    30    57    51    1
    31    57    61    1
    32    52    51    1
    33    51    14    1
    34    61    12    1
    35    14    15    1
    36    14    12    1
    37    14    11    1
    38    12    13    1
    39    12     1    1
    40    11    21   ar
    41    11    18   ar
    42    22    21    1
    43    19    18    1
    44    21    23   ar
    45    18    16   ar
    46     6     5    1
    47    23    24    1
    48    23    20   ar
    49    16    17    1
    50    16    20   ar
    51     1     5   ar
    52     1     9   ar
    53     5     7   ar
    54    20    30    1
    55    10     9    1
    56     9     2   ar
    57     7     8    1
    58     7     4   ar
    59     2     4   ar
    60     2     3    1
    61     4    29    1
    62    28    25    1
    63    26    25    1
    64    29    25    1
    65    25    27    1
