@<TRIPOS>MOLECULE
?
 52 52 0 0 0
SMALL
GASTEIGER

@<TRIPOS>ATOM
      1 O           2.9003    5.1894   16.2335 O.2     1  LIG1       -0.2917
      2 N           4.8091    6.4312   12.2919 N.2     1  LIG1        0.1521
      3 N           5.6595    5.7930   11.6632 N.2     1  LIG1        0.2595
      4 N           6.3456    5.2489   10.9563 N.2     1  LIG1        0.3547
      5 C           3.5106    6.2278   18.2558 C.ar    1  LIG1        0.0177
      6 C           2.7464    5.3421   19.0085 C.ar    1  LIG1       -0.0513
      7 H           2.2132    4.6925   18.5664 H       1  LIG1        0.0624
      8 C           2.7523    5.3930   20.3872 C.ar    1  LIG1       -0.0611
      9 H           2.2304    4.7761   20.8854 H       1  LIG1        0.0618
     10 C           3.5137    6.3357   21.0418 C.ar    1  LIG1       -0.0617
     11 H           3.5213    6.3687   21.9913 H       1  LIG1        0.0618
     12 C           4.2662    7.2327   20.3112 C.ar    1  LIG1       -0.0611
     13 H           4.7835    7.8902   20.7608 H       1  LIG1        0.0618
     14 C           4.2712    7.1796   18.9261 C.ar    1  LIG1       -0.0513
     15 H           4.7969    7.7969   18.4319 H       1  LIG1        0.0624
     16 C           3.4881    6.1130   16.7658 C.2     1  LIG1        0.1672
     17 C           4.2204    7.1515   15.9421 C.3     1  LIG1        0.0333
     18 H           3.9204    8.0520   16.2251 H       1  LIG1        0.0391
     19 H           5.1903    7.0841   16.1329 H       1  LIG1        0.0391
     20 C           4.0090    7.0143   14.4586 C.2     1  LIG1       -0.0403
     21 C           4.9829    6.5400   13.7004 C.2     1  LIG1        0.1146
     22 H           5.8033    6.2709   14.0979 H       1  LIG1        0.0901
     23 C           2.6725    7.4283   13.9191 C.3     1  LIG1       -0.0414
     24 H           2.6753    7.3445   12.9422 H       1  LIG1        0.0275
     25 H           2.4939    8.3595   14.1677 H       1  LIG1        0.0275
     26 H           1.9764    6.8504   14.2947 H       1  LIG1        0.0275
     27 O           7.4406    7.6447    3.8627 O.2     2  LIG2       -0.2917
     28 N           8.2212    5.6392   -0.1340 N.2     2  LIG2        0.1521
     29 N           7.5469    4.8297   -0.7702 N.2     2  LIG2        0.2595
     30 N           6.9723    4.1780   -1.4830 N.2     2  LIG2        0.3547
     31 C           8.4559    6.8572    5.8429 C.ar    2  LIG2        0.0177
     32 C           7.5613    7.5527    6.6514 C.ar    2  LIG2       -0.0513
     33 H           6.8593    8.0547    6.2544 H       2  LIG2        0.0624
     34 C           7.6842    7.5202    8.0251 C.ar    2  LIG2       -0.0611
     35 H           7.0655    7.9960    8.5659 H       2  LIG2        0.0618
     36 C           8.7045    6.7973    8.6162 C.ar    2  LIG2       -0.0617
     37 H           8.7899    6.7820    9.5622 H       2  LIG2        0.0618
     38 C           9.5977    6.0988    7.8328 C.ar    2  LIG2       -0.0611
     39 H          10.2985    5.6017    8.2371 H       2  LIG2        0.0618
     40 C           9.4716    6.1224    6.4492 C.ar    2  LIG2       -0.0513
     41 H          10.0846    5.6328    5.9132 H       2  LIG2        0.0624
     42 C           8.2779    6.9098    4.3624 C.2     2  LIG2        0.1672
     43 C           9.1248    6.0030    3.4958 C.3     2  LIG2        0.0333
     44 H          10.0731    6.1083    3.7586 H       2  LIG2        0.0391
     45 H           8.8682    5.0632    3.6739 H       2  LIG2        0.0391
     46 C           9.0007    6.2660    2.0248 C.2     2  LIG2       -0.0403
     47 C           8.3285    5.4177    1.2661 C.2     2  LIG2        0.1146
     48 H           7.9153    4.6570    1.6589 H       2  LIG2        0.0901
     49 C           9.6702    7.4997    1.4912 C.3     2  LIG2       -0.0414
     50 H           9.4162    7.6298    0.5530 H       2  LIG2        0.0275
     51 H          10.6422    7.3970    1.5543 H       2  LIG2        0.0275
     52 H           9.3895    8.2777    2.0175 H       2  LIG2        0.0275
@<TRIPOS>BOND
     1    30    29    2
     2    29    28    2
     3    28    47    1
     4    50    49    1
     5    47    48    1
     6    47    46    2
     7    49    51    1
     8    49    52    1
     9    49    46    1
    10    46    43    1
    11    43    45    1
    12    43    44    1
    13    43    42    1
    14    27    42    2
    15    42    31    1
    16    31    40   ar
    17    31    32   ar
    18    41    40    1
    19    33    32    1
    20    40    38   ar
    21    32    34   ar
    22    38    39    1
    23    38    36   ar
    24    34    35    1
    25    34    36   ar
    26    36    37    1
    27     4     3    2
    28     3     2    2
    29     2    21    1
    30    24    23    1
    31    21    22    1
    32    21    20    2
    33    23    25    1
    34    23    26    1
    35    23    20    1
    36    20    17    1
    37    17    19    1
    38    17    18    1
    39    17    16    1
    40     1    16    2
    41    16     5    1
    42     5    14   ar
    43     5     6   ar
    44    15    14    1
    45     7     6    1
    46    14    12   ar
    47     6     8   ar
    48    12    13    1
    49    12    10   ar
    50     8     9    1
    51     8    10   ar
    52    10    11    1
