@<TRIPOS>MOLECULE
?
 31 33 0 0 0
SMALL
GASTEIGER

@<TRIPOS>ATOM
      1 O          11.0503    2.2317    2.7045 O.2     1  LIG1       -0.2923
      2 O           7.1653    1.1360    5.1533 O.2     1  LIG1       -0.4672
      3 O           5.0681    1.9478    4.7655 O.3     1  LIG1       -0.3413
      4 C          10.5126    1.6378    3.6350 C.2     1  LIG1        0.1624
      5 C           9.0476    1.7043    3.8222 C.2     1  LIG1        0.0329
      6 C           8.4856    1.0537    4.8570 C.2     1  LIG1        0.1075
      7 C           9.2200    0.1647    5.8205 C.3     1  LIG1        0.0058
      8 H           9.3143    0.6225    6.6702 H       1  LIG1        0.0343
      9 H           8.7010   -0.6409    5.9715 H       1  LIG1        0.0343
     10 C          10.5746   -0.2097    5.3100 C.3     1  LIG1       -0.0392
     11 H          11.0979   -0.5657    6.0460 H       1  LIG1        0.0273
     12 H          10.4761   -0.9156    4.6517 H       1  LIG1        0.0273
     13 C          11.3249    0.9197    4.6921 C.3     1  LIG1        0.0106
     14 H          12.1404    0.5780    4.2891 H       1  LIG1        0.0345
     15 H          11.5770    1.5509    5.3834 H       1  LIG1        0.0345
     16 C           8.2445    2.5335    2.8640 C.3     1  LIG1       -0.0127
     17 H           8.5221    2.3370    1.9558 H       1  LIG1        0.0320
     18 H           8.4114    3.4736    3.0331 H       1  LIG1        0.0320
     19 C           6.7517    2.2506    3.0097 C.3     1  LIG1        0.0259
     20 H           6.2634    3.0046    2.6173 H       1  LIG1        0.0364
     21 C           6.4095    2.1918    4.4890 C.3     1  LIG1        0.2043
     22 H           6.6561    3.0491    4.8953 H       1  LIG1        0.1058
     23 C           6.2670    0.9724    2.3280 C.3     1  LIG1       -0.0421
     24 H           6.4018    1.0394    1.3698 H       1  LIG1        0.0271
     25 H           6.7750    0.2128    2.6545 H       1  LIG1        0.0271
     26 C           4.7876    0.7739    2.6279 C.3     1  LIG1       -0.0289
     27 H           4.4891   -0.0670    2.2461 H       1  LIG1        0.0287
     28 H           4.2757    1.4880    2.2184 H       1  LIG1        0.0287
     29 C           4.5389    0.7667    4.1338 C.3     1  LIG1        0.0517
     30 H           3.5849    0.7146    4.2997 H       1  LIG1        0.0561
     31 H           4.9541   -0.0184    4.5230 H       1  LIG1        0.0561
@<TRIPOS>BOND
     1    24    23    1
     2    17    16    1
     3    28    26    1
     4    27    26    1
     5    23    26    1
     6    23    25    1
     7    23    19    1
     8    20    19    1
     9    26    29    1
    10     1     4    2
    11    16    19    1
    12    16    18    1
    13    16     5    1
    14    19    21    1
    15     4     5    1
    16     4    13    1
    17     5     6    2
    18    29    30    1
    19    29    31    1
    20    29     3    1
    21    14    13    1
    22    21     3    1
    23    21    22    1
    24    21     2    1
    25    12    10    1
    26    13    10    1
    27    13    15    1
    28     6     2    1
    29     6     7    1
    30    10     7    1
    31    10    11    1
    32     7     9    1
    33     7     8    1
