@<TRIPOS>MOLECULE
?
 80 90 0 0 0
SMALL
GASTEIGER

@<TRIPOS>ATOM
      1 C          -1.7019   11.1646    2.5927 C.ar    1  LIG1       -0.0617
      2 H          -1.5719   12.1309    2.6744 H       1  LIG1        0.0618
      3 C           3.9467    9.4086    1.7465 C.ar    1  LIG1       -0.0436
      4 H           4.3346   10.2817    1.6906 H       1  LIG1        0.0633
      5 C           2.6932    9.1310    1.2548 C.ar    1  LIG1        0.0283
      6 H           2.0897    9.8572    0.9059 H       1  LIG1        0.0830
      7 C           0.9441   -1.1733    1.4258 C.ar    1  LIG1       -0.0436
      8 H           0.8491   -2.1137    1.4484 H       1  LIG1        0.0633
      9 C           4.6754    8.3861    2.3310 C.ar    1  LIG1       -0.0583
     10 H           5.5687    8.5282    2.6761 H       1  LIG1        0.0619
     11 C          -2.4814   10.5409    3.5448 C.ar    1  LIG1       -0.0612
     12 H          -2.9266   11.0471    4.2572 H       1  LIG1        0.0618
     13 C          -5.1359    1.2345    0.9691 C.ar    1  LIG1       -0.0612
     14 H          -5.8415    1.0479    0.2704 H       1  LIG1        0.0618
     15 C          -5.7033    9.5392    0.6514 C.ar    1  LIG1       -0.0606
     16 H          -5.4871   10.3056    0.0879 H       1  LIG1        0.0618
     17 C          -7.2642    3.7146    4.1935 C.ar    1  LIG1       -0.0606
     18 H          -7.5013    2.8941    4.7019 H       1  LIG1        0.0618
     19 C          -8.6258    7.9463    2.3121 C.ar    1  LIG1       -0.0534
     20 H          -9.3012    8.6613    2.1236 H       1  LIG1        0.0624
     21 C          -6.9859    9.3256    1.0814 C.ar    1  LIG1       -0.0540
     22 H          -7.7351    9.9140    0.8760 H       1  LIG1        0.0624
     23 C          -4.6478    0.2180    1.7606 C.ar    1  LIG1       -0.0617
     24 H          -4.9977   -0.7579    1.6375 H       1  LIG1        0.0618
     25 C           0.2661   -0.3824    2.3327 C.ar    1  LIG1        0.0283
     26 H          -0.3549   -0.7699    3.0179 H       1  LIG1        0.0830
     27 C          -3.6903    0.4864    2.7178 C.ar    1  LIG1       -0.0612
     28 H          -3.3033   -0.2930    3.2137 H       1  LIG1        0.0618
     29 C          -1.0989   10.4219    1.5962 C.ar    1  LIG1       -0.0612
     30 H          -0.5044   10.8662    0.9523 H       1  LIG1        0.0618
     31 C          -8.2375    4.6511    3.9543 C.ar    1  LIG1       -0.0540
     32 H          -9.1692    4.5190    4.2456 H       1  LIG1        0.0624
     33 C          -4.6727    2.5343    1.1439 C.ar    1  LIG1       -0.0540
     34 H          -5.0487    3.2558    0.5674 H       1  LIG1        0.0624
     35 C          -8.9197    6.8356    2.9908 C.ar    1  LIG1       -0.0534
     36 H          -9.8153    6.6432    3.3281 H       1  LIG1        0.0624
     37 C          -4.6783    8.6824    1.0404 C.ar    1  LIG1       -0.0534
     38 H          -3.7491    8.8990    0.7068 H       1  LIG1        0.0624
     39 C           1.7820   -0.5640    0.5314 C.ar    1  LIG1       -0.0583
     40 H           2.2803   -1.0868   -0.1560 H       1  LIG1        0.0619
     41 C          -2.6944    9.1761    3.4751 C.ar    1  LIG1       -0.0540
     42 H          -3.2779    8.7136    4.1295 H       1  LIG1        0.0624
     43 C          -7.9314    5.8254    3.2553 C.ar    1  LIG1       -0.0167
     44 C          -4.9260    7.5655    1.8341 C.ar    1  LIG1       -0.0084
     45 C          -7.2967    8.1931    1.8472 C.ar    1  LIG1       -0.0167
     46 C           2.8309    6.9464    1.8988 C.ar    1  LIG1        0.0915
     47 C           2.2374    5.5753    1.9013 C.ar    1  LIG1        0.1191
     48 C          -1.2995    9.0573    1.5189 C.ar    1  LIG1       -0.0540
     49 H          -0.8666    8.4998    0.7930 H       1  LIG1        0.0624
     50 C          -0.1360    6.2743    2.3398 C.ar    1  LIG1       -0.0435
     51 H           0.1393    7.2142    2.5799 H       1  LIG1        0.0631
     52 C           1.2389    1.5225    1.5491 C.ar    1  LIG1        0.0915
     53 C          -3.2330    1.7802    2.9119 C.ar    1  LIG1       -0.0540
     54 H          -2.6013    1.9717    3.5853 H       1  LIG1        0.0624
     55 C          -6.2684    7.2625    2.1535 C.ar    1  LIG1       -0.0019
     56 C          -3.7275    2.8225    2.1344 C.ar    1  LIG1       -0.0167
     57 C           0.8305    5.2987    2.0893 C.ar    1  LIG1        0.0141
     58 C           1.4733    2.9835    1.6972 C.ar    1  LIG1        0.1191
     59 C          -2.1307    8.4231    2.4440 C.ar    1  LIG1       -0.0167
     60 C          -0.9228    3.6100    1.9798 C.ar    1  LIG1       -0.0435
     61 H          -1.1669    2.6399    1.8648 H       1  LIG1        0.0631
     62 C          -6.6041    6.0290    2.7969 C.ar    1  LIG1       -0.0019
     63 C          -5.9711    3.8904    3.7021 C.ar    1  LIG1       -0.0534
     64 H          -5.2832    3.2065    3.9154 H       1  LIG1        0.0624
     65 C          -3.8559    6.6244    2.2439 C.ar    1  LIG1       -0.0007
     66 C          -3.3026    4.2424    2.3126 C.ar    1  LIG1       -0.0018
     67 C          -2.5127    6.9843    2.3262 C.ar    1  LIG1       -0.0018
     68 C          -5.6274    5.0175    2.9655 C.ar    1  LIG1       -0.0084
     69 C          -1.9134    4.5876    2.1905 C.ar    1  LIG1       -0.0083
     70 C          -4.2401    5.2554    2.4837 C.ar    1  LIG1       -0.0007
     71 C          -1.5105    5.9599    2.3292 C.ar    1  LIG1       -0.0083
     72 C           0.4294    3.9442    1.9282 C.ar    1  LIG1        0.0141
     73 C           4.1138    7.1328    2.4005 C.ar    1  LIG1       -0.0341
     74 H           4.5835    6.3532    2.7557 H       1  LIG1        0.0639
     75 C           1.9296    0.8089    0.5837 C.ar    1  LIG1       -0.0341
     76 H           2.5259    1.2811   -0.0747 H       1  LIG1        0.0639
     77 N           3.1199    4.6398    1.6586 N.ar    1  LIG1       -0.1465
     78 N           2.7385    3.3182    1.5823 N.ar    1  LIG1       -0.1465
     79 N           2.1156    7.9222    1.3249 N.ar    1  LIG1       -0.2534
     80 N           0.3955    0.9410    2.4118 N.ar    1  LIG1       -0.2534
@<TRIPOS>BOND
     1    40    39    1
     2    76    75    1
     3    16    15    1
     4    14    13    1
     5    39    75   ar
     6    39     7   ar
     7    34    33    1
     8    75    52   ar
     9    15    37   ar
    10    15    21   ar
    11    38    37    1
    12    49    48    1
    13    22    21    1
    14     6     5    1
    15    30    29    1
    16    13    33   ar
    17    13    23   ar
    18    37    44   ar
    19    21    45   ar
    20    33    56   ar
    21     5    79   ar
    22     5     3   ar
    23    79    46   ar
    24     7     8    1
    25     7    25   ar
    26    48    29   ar
    27    48    59   ar
    28    52    58    1
    29    52    80   ar
    30    78    77   ar
    31    78    58   ar
    32    29     1   ar
    33    24    23    1
    34    77    47   ar
    35     4     3    1
    36    58    72   ar
    37     3     9   ar
    38    23    27   ar
    39    44    55   ar
    40    44    65   ar
    41    45    55   ar
    42    45    19   ar
    43    61    60    1
    44    46    47    1
    45    46    73   ar
    46    47    57   ar
    47    72    60   ar
    48    72    57   ar
    49    60    69   ar
    50    57    50   ar
    51    20    19    1
    52    56    66    1
    53    56    53   ar
    54    55    62   ar
    55    69    66   ar
    56    69    71   ar
    57    65    67   ar
    58    65    70   ar
    59    19    35   ar
    60    66    70   ar
    61    67    71   ar
    62    67    59    1
    63    71    50   ar
    64     9    73   ar
    65     9    10    1
    66    25    80   ar
    67    25    26    1
    68    50    51    1
    69    73    74    1
    70    59    41   ar
    71    70    68   ar
    72     1     2    1
    73     1    11   ar
    74    27    53   ar
    75    27    28    1
    76    62    68   ar
    77    62    43   ar
    78    53    54    1
    79    68    63   ar
    80    35    43   ar
    81    35    36    1
    82    43    31   ar
    83    41    11   ar
    84    41    42    1
    85    11    12    1
    86    63    64    1
    87    63    17   ar
    88    31    17   ar
    89    31    32    1
    90    17    18    1
