@<TRIPOS>MOLECULE
?
 36 37 0 0 0
SMALL
GASTEIGER

@<TRIPOS>ATOM
      1 O           2.1204   -1.1876    7.1861 O.3     1  LIG1       -0.4946
      2 O          -2.2429    0.8715    7.7305 O.3     1  LIG1       -0.4949
      3 O           0.7329    2.1385    4.2331 O.3     1  LIG1       -0.4946
      4 O           1.4207   -0.6009    2.8799 O.2     1  LIG1       -0.2968
      5 C           1.1120   -0.3348    6.8279 C.ar    1  LIG1        0.1309
      6 C           1.3561    0.4279    5.6844 C.ar    1  LIG1        0.0462
      7 C           0.3894    1.3782    5.3239 C.ar    1  LIG1        0.1309
      8 C          -0.8042    1.5277    6.0175 C.ar    1  LIG1        0.0223
      9 H          -1.4486    2.1724    5.7499 H       1  LIG1        0.0691
     10 C          -1.0263    0.7009    7.1206 C.ar    1  LIG1        0.1271
     11 C          -0.0803   -0.2165    7.5557 C.ar    1  LIG1        0.0223
     12 H          -0.2368   -0.7501    8.3257 H       1  LIG1        0.0691
     13 C           1.8934   -2.0731    8.2834 C.3     1  LIG1        0.0788
     14 H           1.7228   -1.5509    9.0949 H       1  LIG1        0.0660
     15 H           2.6843   -2.6361    8.4181 H       1  LIG1        0.0660
     16 H           1.1174   -2.6400    8.0911 H       1  LIG1        0.0660
     17 C           2.5910    0.2455    4.8481 C.3     1  LIG1        0.0494
     18 H           3.0351   -0.6001    5.1450 H       1  LIG1        0.0428
     19 C           3.6419    1.3687    4.9098 C.3     1  LIG1       -0.0388
     20 H           3.2081    2.2523    5.0118 H       1  LIG1        0.0275
     21 H           4.2652    1.2275    5.6657 H       1  LIG1        0.0275
     22 C           4.3814    1.2724    3.5645 C.3     1  LIG1       -0.0454
     23 H           4.8257    2.1286    3.3409 H       1  LIG1        0.0270
     24 H           5.0600    0.5514    3.5820 H       1  LIG1        0.0270
     25 C           3.2659    0.9530    2.5640 C.3     1  LIG1        0.0065
     26 H           2.8354    1.7837    2.2390 H       1  LIG1        0.0342
     27 H           3.6216    0.4510    1.7878 H       1  LIG1        0.0342
     28 C           2.2812    0.1056    3.3508 C.2     1  LIG1        0.1409
     29 C          -0.2563    2.9597    3.6409 C.3     1  LIG1        0.0788
     30 H          -0.9939    2.4014    3.3188 H       1  LIG1        0.0660
     31 H           0.1346    3.4515    2.8889 H       1  LIG1        0.0660
     32 H          -0.5940    3.5947    4.3063 H       1  LIG1        0.0660
     33 C          -2.6222   -0.1111    8.7050 C.3     1  LIG1        0.0788
     34 H          -2.5100   -1.0083    8.3249 H       1  LIG1        0.0660
     35 H          -3.5601    0.0224    8.9559 H       1  LIG1        0.0660
     36 H          -2.0555   -0.0195    9.4987 H       1  LIG1        0.0660
@<TRIPOS>BOND
     1    27    25    1
     2    26    25    1
     3    25    28    1
     4    25    22    1
     5     4    28    2
     6    31    29    1
     7    30    29    1
     8    23    22    1
     9    28    17    1
    10    22    24    1
    11    22    19    1
    12    29     3    1
    13    29    32    1
    14     3     7    1
    15    17    19    1
    16    17    18    1
    17    17     6    1
    18    19    20    1
    19    19    21    1
    20     7     6   ar
    21     7     8   ar
    22     6     5   ar
    23     9     8    1
    24     8    10   ar
    25     5     1    1
    26     5    11   ar
    27    10    11   ar
    28    10     2    1
    29     1    13    1
    30    11    12    1
    31     2    33    1
    32    16    13    1
    33    13    15    1
    34    13    14    1
    35    34    33    1
    36    33    35    1
    37    33    36    1
