@<TRIPOS>MOLECULE
?
 49 52 0 0 0
SMALL
GASTEIGER

@<TRIPOS>ATOM
      1 C           5.1279    2.4234    0.5314 C.2     1  LIG1        0.2077
      2 C           6.1268    2.4804    1.6349 C.2     1  LIG1        0.0813
      3 C           6.2756    1.4281    2.4737 C.2     1  LIG1       -0.0107
      4 C           4.5000    0.1318    1.2804 C.ar    1  LIG1        0.0113
      5 C           5.4974    0.2295    2.3799 C.2     1  LIG1        0.0742
      6 C           7.8595    4.0247    2.5283 C.ar    1  LIG1        0.0316
      7 C           8.7368    4.3126    4.7445 C.ar    1  LIG1       -0.0182
      8 H           8.6498    4.2005    5.6632 H       1  LIG1        0.0655
      9 C           4.3079    1.2053    0.4071 C.ar    1  LIG1        0.0327
     10 C           6.3013    0.1724    5.3185 C.ar    1  LIG1       -0.0328
     11 H           5.6662    0.8478    5.2393 H       1  LIG1        0.0640
     12 C           7.7370    3.8686    3.9079 C.ar    1  LIG1       -0.0371
     13 H           6.9791    3.4638    4.2644 H       1  LIG1        0.0637
     14 C           9.8711    4.9252    4.2332 C.ar    1  LIG1        0.1202
     15 C           9.9922    5.0942    2.8689 C.ar    1  LIG1       -0.0182
     16 H          10.7443    5.5119    2.5150 H       1  LIG1        0.0655
     17 C           6.4405   -0.7703    4.2956 C.ar    1  LIG1        0.0648
     18 C           8.9900    4.6411    2.0303 C.ar    1  LIG1       -0.0371
     19 H           9.0803    4.7532    1.1110 H       1  LIG1        0.0637
     20 C           3.3413    1.1313   -0.5998 C.ar    1  LIG1       -0.0502
     21 H           3.2192    1.8459   -1.1825 H       1  LIG1        0.0625
     22 C           7.3622   -1.7875    4.4717 C.ar    1  LIG1       -0.0328
     23 H           7.4321   -2.4551    3.8283 H       1  LIG1        0.0640
     24 C           7.0928    0.1102    6.4384 C.ar    1  LIG1       -0.0180
     25 H           6.9805    0.7366    7.1160 H       1  LIG1        0.0655
     26 C           8.1836   -1.8335    5.5885 C.ar    1  LIG1       -0.0180
     27 H           8.8170   -2.5078    5.6754 H       1  LIG1        0.0655
     28 C           3.7271   -1.0202    1.1100 C.ar    1  LIG1       -0.0519
     29 H           3.8545   -1.7511    1.6709 H       1  LIG1        0.0624
     30 C           2.7762   -1.0748    0.1141 C.ar    1  LIG1       -0.0611
     31 H           2.2656   -1.8450    0.0087 H       1  LIG1        0.0618
     32 C           8.0566   -0.8746    6.5694 C.ar    1  LIG1        0.1202
     33 C           9.8045   -1.8172    7.9085 C.3     1  LIG1        0.0788
     34 H           9.3755   -2.6745    7.9497 H       1  LIG1        0.0660
     35 H          10.2682   -1.6524    8.7328 H       1  LIG1        0.0660
     36 H          10.4315   -1.8066    7.1805 H       1  LIG1        0.0660
     37 C          11.8932    6.1039    4.6774 C.3     1  LIG1        0.0788
     38 H          12.4634    5.5531    4.1353 H       1  LIG1        0.0660
     39 H          12.3928    6.4449    5.4225 H       1  LIG1        0.0660
     40 H          11.5634    6.8357    4.1510 H       1  LIG1        0.0660
     41 C           2.5716   -0.0010   -0.7276 C.ar    1  LIG1       -0.0610
     42 H           1.9129   -0.0431   -1.3831 H       1  LIG1        0.0618
     43 O           5.0255    3.3507   -0.2552 O.2     1  LIG1       -0.2853
     44 O          10.8019    5.3326    5.1527 O.3     1  LIG1       -0.4951
     45 O           8.8298   -0.8106    7.7060 O.3     1  LIG1       -0.4951
     46 N           5.5990   -0.8018    3.1595 N.2     1  LIG1       -0.2472
     47 N           6.8461    3.6338    1.6280 N.pl3   1  LIG1       -0.3114
     48 H           6.9521    1.4369    3.1290 H       1  LIG1        0.0659
     49 H           6.6493    4.1574    1.0221 H       1  LIG1        0.1523
@<TRIPOS>BOND
     1    42    41    1
     2    21    20    1
     3    41    20   ar
     4    41    30   ar
     5    20     9   ar
     6    43     1    2
     7    31    30    1
     8    30    28   ar
     9     9     1    1
    10     9     4   ar
    11     1     2    1
    12    49    47    1
    13    28     4   ar
    14    28    29    1
    15    19    18    1
    16     4     5    1
    17    47     2    1
    18    47     6    1
    19     2     3    2
    20    18     6   ar
    21    18    15   ar
    22     5     3    1
    23     5    46    2
    24     3    48    1
    25    16    15    1
    26     6    12   ar
    27    15    14   ar
    28    46    17    1
    29    23    22    1
    30    12    13    1
    31    12     7   ar
    32    38    37    1
    33    40    37    1
    34    14     7   ar
    35    14    44    1
    36    17    22   ar
    37    17    10   ar
    38    22    26   ar
    39    37    44    1
    40    37    39    1
    41     7     8    1
    42    11    10    1
    43    10    24   ar
    44    26    27    1
    45    26    32   ar
    46    24    32   ar
    47    24    25    1
    48    32    45    1
    49    36    33    1
    50    45    33    1
    51    33    34    1
    52    33    35    1
