@<TRIPOS>MOLECULE
?
 45 46 0 0 0
SMALL
GASTEIGER

@<TRIPOS>ATOM
      1 S           6.6680    2.0818    1.6530 S.2     1  LIG1       -0.0385
      2 F           2.4769    2.2025    2.0493 F       1  LIG1       -0.1989
      3 C           7.3610    3.2846    5.3944 C.ar    1  LIG1       -0.0226
      4 N           5.2542    3.2472    4.0530 N.am    1  LIG1       -0.2797
      5 F           2.7266    4.2162    2.8451 F       1  LIG1       -0.1989
      6 N           7.7954    4.4887    1.7459 N.am    1  LIG1       -0.3323
      7 O           3.7625    1.5389    4.1914 O.2     1  LIG1       -0.2693
      8 C           9.8989    4.4274    5.6614 C.ar    1  LIG1       -0.0617
      9 H          10.7418    4.8112    5.7460 H       1  LIG1        0.0618
     10 C           8.4814    2.6509    4.8654 C.ar    1  LIG1       -0.0565
     11 H           8.3834    1.8414    4.4182 H       1  LIG1        0.0621
     12 C           4.2392    3.7007    6.7456 C.ar    1  LIG1       -0.0565
     13 H           4.0897    4.3722    6.1192 H       1  LIG1        0.0621
     14 C           6.8595    3.6633    2.1830 C.2     1  LIG1        0.0684
     15 C           9.7477    3.2157    4.9971 C.ar    1  LIG1       -0.0614
     16 H          10.4902    2.7834    4.6410 H       1  LIG1        0.0618
     17 C           3.5334    3.7031    7.9498 C.ar    1  LIG1       -0.0614
     18 H           2.9128    4.3743    8.1208 H       1  LIG1        0.0618
     19 C           5.8967    4.2497    3.2186 C.3     1  LIG1        0.0606
     20 H           6.3856    4.8635    3.7878 H       1  LIG1        0.0532
     21 H           5.2116    4.7580    2.7571 H       1  LIG1        0.0532
     22 C           5.1633    2.7003    6.4787 C.ar    1  LIG1       -0.0226
     23 C           3.4057    3.1011    2.4238 C.3     1  LIG1        0.3137
     24 H           4.0095    3.3151    1.6810 H       1  LIG1        0.1120
     25 C           5.3880    1.7147    7.4374 C.ar    1  LIG1       -0.0565
     26 H           6.0157    1.0486    7.2731 H       1  LIG1        0.0621
     27 C           5.9917    2.6515    5.2016 C.3     1  LIG1        0.0770
     28 H           6.1387    1.7060    4.9906 H       1  LIG1        0.0601
     29 C           3.7533    2.7099    8.8913 C.ar    1  LIG1       -0.0617
     30 H           3.2781    2.7099    9.6914 H       1  LIG1        0.0618
     31 C           7.5255    4.4927    6.0722 C.ar    1  LIG1       -0.0565
     32 H           6.7863    4.9199    6.4416 H       1  LIG1        0.0621
     33 C           4.1858    2.5346    3.6309 C.2     1  LIG1        0.2830
     34 C           8.7869    5.0616    6.1987 C.ar    1  LIG1       -0.0614
     35 H           8.8866    5.8715    6.6445 H       1  LIG1        0.0618
     36 C           8.8400    4.0515    0.8182 C.3     1  LIG1        0.0006
     37 H           8.8586    3.0924    0.7862 H       1  LIG1        0.0428
     38 H           9.6917    4.3786    1.1177 H       1  LIG1        0.0428
     39 H           8.6555    4.3978   -0.0580 H       1  LIG1        0.0428
     40 C           7.9184    5.8764    2.2033 C.3     1  LIG1        0.0006
     41 H           7.0444    6.2392    2.3658 H       1  LIG1        0.0428
     42 H           8.3620    6.3969    1.5289 H       1  LIG1        0.0428
     43 H           8.4309    5.9014    3.0143 H       1  LIG1        0.0428
     44 C           4.6860    1.7154    8.6351 C.ar    1  LIG1       -0.0614
     45 H           4.8398    1.0496    9.2657 H       1  LIG1        0.0618
@<TRIPOS>BOND
     1    39    36    1
     2    37    36    1
     3    36    38    1
     4    36     6    1
     5    42    40    1
     6     1    14    2
     7    24    23    1
     8     6    14    1
     9     6    40    1
    10     2    23    1
    11    14    19    1
    12    40    41    1
    13    40    43    1
    14    23     5    1
    15    23    33    1
    16    21    19    1
    17    19    20    1
    18    19     4    1
    19    33     4   am
    20    33     7    2
    21     4    27    1
    22    11    10    1
    23    16    15    1
    24    10    15   ar
    25    10     3   ar
    26    28    27    1
    27    15     8   ar
    28    27     3    1
    29    27    22    1
    30     3    31   ar
    31     8     9    1
    32     8    34   ar
    33    31    34   ar
    34    31    32    1
    35    13    12    1
    36    34    35    1
    37    22    12   ar
    38    22    25   ar
    39    12    17   ar
    40    26    25    1
    41    25    44   ar
    42    17    18    1
    43    17    29   ar
    44    44    29   ar
    45    44    45    1
    46    29    30    1
