@<TRIPOS>MOLECULE
?
 44 47 0 0 0
SMALL
GASTEIGER

@<TRIPOS>ATOM
      1 C           2.6624    3.1244    1.1478 C.ar    1  LIG1        0.0187
      2 C           3.9729    3.0225    0.7101 C.ar    1  LIG1       -0.0442
      3 H           4.3615    2.1893    0.5660 H       1  LIG1        0.0630
      4 C           4.6910    4.1825    0.4931 C.ar    1  LIG1       -0.0175
      5 H           5.5677    4.1326    0.1874 H       1  LIG1        0.0655
      6 C           4.1190    5.4042    0.7260 C.ar    1  LIG1        0.1413
      7 C           2.7957    5.5229    1.1820 C.ar    1  LIG1        0.0474
      8 C           2.0853    4.3501    1.3830 C.ar    1  LIG1       -0.0349
      9 H           1.2056    4.3924    1.6812 H       1  LIG1        0.0636
     10 C           5.6953    7.0315    1.3671 C.2     1  LIG1        0.3445
     11 C           6.1258    8.4112    1.0834 C.ar    1  LIG1        0.0594
     12 C           7.0540    8.9875    1.9247 C.ar    1  LIG1       -0.0478
     13 H           7.4386    8.4886    2.6090 H       1  LIG1        0.0626
     14 C           7.4089   10.3073    1.7449 C.ar    1  LIG1       -0.0610
     15 H           8.0255   10.6952    2.3230 H       1  LIG1        0.0618
     16 C           6.8754   11.0538    0.7389 C.ar    1  LIG1       -0.0617
     17 H           7.1286   11.9405    0.6274 H       1  LIG1        0.0618
     18 C           5.9672   10.4856   -0.1024 C.ar    1  LIG1       -0.0610
     19 H           5.6029   10.9897   -0.7943 H       1  LIG1        0.0618
     20 C           5.5817    9.1728    0.0622 C.ar    1  LIG1       -0.0478
     21 H           4.9554    8.7969   -0.5136 H       1  LIG1        0.0626
     22 C           2.2250    6.8285    1.5317 C.ar    1  LIG1        0.1253
     23 C           0.9426    7.2814    1.4763 C.ar    1  LIG1        0.2359
     24 C          -0.3404    6.7116    1.0083 C.3     1  LIG1        0.4526
     25 C           2.1815    8.8136    2.3640 C.ar    1  LIG1        0.2284
     26 C           2.4942   10.0847    2.9899 C.ar    1  LIG1        0.0369
     27 C           3.8164   10.3859    3.2615 C.ar    1  LIG1       -0.0495
     28 H           4.4852    9.7876    3.0164 H       1  LIG1        0.0625
     29 C           4.1478   11.5526    3.8866 C.ar    1  LIG1       -0.0610
     30 H           5.0400   11.7466    4.0656 H       1  LIG1        0.0618
     31 C           3.1647   12.4480    4.2538 C.ar    1  LIG1       -0.0617
     32 H           3.3904   13.2430    4.6817 H       1  LIG1        0.0618
     33 C           1.8556   12.1605    3.9860 C.ar    1  LIG1       -0.0610
     34 H           1.1920   12.7633    4.2356 H       1  LIG1        0.0618
     35 C           1.5046   10.9914    3.3517 C.ar    1  LIG1       -0.0495
     36 H           0.6123   10.8095    3.1666 H       1  LIG1        0.0625
     37 N           2.9992    7.8410    2.0992 N.ar    1  LIG1       -0.2083
     38 O           0.8871    8.5449    2.0044 O.2     1  LIG1       -0.4306
     39 O           4.8206    6.5751    0.4203 O.3     1  LIG1       -0.4217
     40 O           6.0363    6.3612    2.2995 O.2     1  LIG1       -0.2445
     41 F          -0.1874    6.0068   -0.1077 F       1  LIG1       -0.1631
     42 F          -0.8930    5.8852    1.8989 F       1  LIG1       -0.1631
     43 F          -1.2411    7.6682    0.7609 F       1  LIG1       -0.1631
     44 BR          1.6675    1.5462    1.4524 Br      1  LIG1       -0.0503
@<TRIPOS>BOND
     1    19    18    1
     2    21    20    1
     3    41    24    1
     4    18    20   ar
     5    18    16   ar
     6    20    11   ar
     7     5     4    1
     8    39     6    1
     9    39    10    1
    10     4     2   ar
    11     4     6   ar
    12     3     2    1
    13    17    16    1
    14     2     1   ar
    15     6     7   ar
    16    16    14   ar
    17    43    24    1
    18    24    23    1
    19    24    42    1
    20    11    10    1
    21    11    12   ar
    22     1     8   ar
    23     1    44    1
    24     7     8   ar
    25     7    22    1
    26    10    40    2
    27     8     9    1
    28    23    22   ar
    29    23    38   ar
    30    22    37   ar
    31    14    12   ar
    32    14    15    1
    33    12    13    1
    34    38    25   ar
    35    37    25   ar
    36    25    26    1
    37    26    27   ar
    38    26    35   ar
    39    28    27    1
    40    36    35    1
    41    27    29   ar
    42    35    33   ar
    43    29    30    1
    44    29    31   ar
    45    33    34    1
    46    33    31   ar
    47    31    32    1
