@<TRIPOS>MOLECULE
C17 H18 O6 S
 42 44 0 0 0
SMALL
GASTEIGER

@<TRIPOS>ATOM
      1 S           2.2460    3.0149    2.7048 S.O2    1  LIG1        0.0281
      2 O           2.0554    6.2963   -1.0721 O.3     1  LIG1       -0.3714
      3 O           4.6231    4.7601    3.2220 O.2     1  LIG1       -0.2906
      4 O           1.0791    2.5437    2.0741 O.2     1  LIG1       -0.1642
      5 O           4.8590    5.1869   -0.1856 O.3     1  LIG1       -0.3939
      6 O           4.0931    9.3403    0.3750 O.2     1  LIG1       -0.2966
      7 O           2.2469    3.1658    4.1128 O.2     1  LIG1       -0.1642
      8 C           4.6345    6.5861   -0.2967 C.3     1  LIG1        0.0599
      9 C           2.6374    4.5572    1.9506 C.2     1  LIG1        0.1346
     10 C           4.3987    1.4508    3.2561 C.ar    1  LIG1       -0.0365
     11 C           3.5796    1.9427    2.2746 C.ar    1  LIG1        0.0937
     12 C           3.6671    1.5082    0.9585 C.ar    1  LIG1       -0.0365
     13 C           3.8192    5.2769    2.5062 C.2     1  LIG1        0.1820
     14 C           2.1328    6.3832    0.3383 C.3     1  LIG1        0.1045
     15 C           3.2131    8.5096    0.4911 C.2     1  LIG1        0.1452
     16 C           1.1374    7.4206    0.9089 C.3     1  LIG1       -0.0124
     17 C           0.7722    6.0750   -1.6104 C.3     1  LIG1        0.0376
     18 C           3.9194    6.7430    2.1188 C.3     1  LIG1        0.0292
     19 C           1.7549    8.7393    0.4321 C.3     1  LIG1        0.0095
     20 C           4.6028    0.5263    0.6667 C.ar    1  LIG1       -0.0599
     21 C           5.3028    0.4594    2.9488 C.ar    1  LIG1       -0.0599
     22 C           5.3865   -0.0057    1.6519 C.ar    1  LIG1       -0.0616
     23 C           3.5098    7.0148    0.6332 C.3     1  LIG1        0.0913
     24 C           1.9071    5.0472    0.9784 C.2     1  LIG1       -0.0229
     25 H           4.9881    4.8706   -0.9310 H       1  LIG1        0.2094
     26 H           4.4027    6.8064   -1.2123 H       1  LIG1        0.0568
     27 H           5.4469    7.0648   -0.0676 H       1  LIG1        0.0568
     28 H           4.3459    1.7842    4.1224 H       1  LIG1        0.0637
     29 H           3.1186    1.8631    0.2967 H       1  LIG1        0.0637
     30 H           0.2470    7.2941    0.5451 H       1  LIG1        0.0300
     31 H           1.0972    7.3777    1.8768 H       1  LIG1        0.0300
     32 H           0.3004    5.4442   -1.0617 H       1  LIG1        0.0524
     33 H           0.8553    5.7252   -2.5007 H       1  LIG1        0.0524
     34 H           0.2887    6.9032   -1.6352 H       1  LIG1        0.0524
     35 H           4.8317    7.0433    2.2542 H       1  LIG1        0.0357
     36 H           3.3468    7.2631    2.7043 H       1  LIG1        0.0357
     37 H           1.4739    8.9432   -0.4739 H       1  LIG1        0.0343
     38 H           1.4965    9.4707    1.0136 H       1  LIG1        0.0343
     39 H           4.6972    0.2274   -0.2088 H       1  LIG1        0.0618
     40 H           5.8525    0.1043    3.6097 H       1  LIG1        0.0618
     41 H           5.9833   -0.6887    1.4461 H       1  LIG1        0.0618
     42 H           1.1999    4.5306    0.6647 H       1  LIG1        0.0621
@<TRIPOS>BOND
     1    33    17    1
     2    34    17    1
     3    17     2    1
     4    17    32    1
     5    26     8    1
     6     2    14    1
     7    25     5    1
     8    37    19    1
     9     8     5    1
    10     8    27    1
    11     8    23    1
    12    39    20    1
    13    29    12    1
    14    14    23    1
    15    14    16    1
    16    14    24    1
    17     6    15    2
    18    19    15    1
    19    19    16    1
    20    19    38    1
    21    15    23    1
    22    30    16    1
    23    23    18    1
    24    42    24    1
    25    20    12   ar
    26    20    22   ar
    27    16    31    1
    28    12    11   ar
    29    24     9    2
    30    41    22    1
    31    22    21   ar
    32     9    13    1
    33     9     1    1
    34     4     1    2
    35    18    35    1
    36    18    13    1
    37    18    36    1
    38    11     1    1
    39    11    10   ar
    40    13     3    2
    41     1     7    2
    42    21    10   ar
    43    21    40    1
    44    10    28    1
