@<TRIPOS>MOLECULE
4030018.cif
 146 159 0 0 0
SMALL
GASTEIGER

@<TRIPOS>ATOM
      1 C           6.1591    8.8151   30.4681 C.ar    1  LIG1       -0.0463
      2 H           7.1023    8.7702   30.3632 H       1  LIG1        0.0630
      3 C           5.5205   10.0611   30.4105 C.ar    1  LIG1       -0.0173
      4 C           4.1275   10.1132   30.5544 C.ar    1  LIG1       -0.0540
      5 H           3.6797   10.9502   30.5161 H       1  LIG1        0.0624
      6 C           3.3992    8.9502   30.7523 C.ar    1  LIG1       -0.0606
      7 H           2.4547    8.9932   30.8438 H       1  LIG1        0.0618
      8 C           4.0444    7.7256   30.8174 C.ar    1  LIG1       -0.0540
      9 H           3.5352    6.9359   30.9587 H       1  LIG1        0.0624
     10 C           5.4350    7.6333   30.6778 C.ar    1  LIG1       -0.0173
     11 C           7.3535   11.3959   29.3323 C.ar    1  LIG1       -0.0463
     12 H           7.6359   10.6074   28.8840 H       1  LIG1        0.0630
     13 C           8.0331   12.5947   29.0909 C.ar    1  LIG1       -0.0173
     14 C           7.6108   13.7376   29.7833 C.ar    1  LIG1       -0.0540
     15 H           8.0534   14.5653   29.6368 H       1  LIG1        0.0624
     16 C           6.5506   13.6751   30.6835 C.ar    1  LIG1       -0.0606
     17 H           6.2875   14.4554   31.1572 H       1  LIG1        0.0618
     18 C           5.8769   12.4829   30.8927 C.ar    1  LIG1       -0.0540
     19 H           5.1457   12.4515   31.4985 H       1  LIG1        0.0624
     20 C           6.2709   11.3248   30.2136 C.ar    1  LIG1       -0.0173
     21 C           9.2168   11.7170   27.0545 C.ar    1  LIG1       -0.0463
     22 H           8.6910   10.9282   27.1167 H       1  LIG1        0.0630
     23 C          10.0841   11.8696   25.9696 C.ar    1  LIG1       -0.0173
     24 C          10.8699   13.0187   25.8840 C.ar    1  LIG1       -0.0540
     25 H          11.4413   13.1520   25.1368 H       1  LIG1        0.0624
     26 C          10.8126   13.9684   26.8982 C.ar    1  LIG1       -0.0606
     27 H          11.3711   14.7356   26.8548 H       1  LIG1        0.0618
     28 C           9.9476   13.8086   27.9757 C.ar    1  LIG1       -0.0540
     29 H           9.9300   14.4611   28.6661 H       1  LIG1        0.0624
     30 C           9.0998   12.6917   28.0523 C.ar    1  LIG1       -0.0173
     31 C          10.4049    9.5001   25.2471 C.ar    1  LIG1       -0.0463
     32 H          10.5598    9.2766   26.1572 H       1  LIG1        0.0630
     33 C          10.4709    8.4944   24.2748 C.ar    1  LIG1       -0.0173
     34 C          10.1708    8.8326   22.9454 C.ar    1  LIG1       -0.0540
     35 H          10.1816    8.1603   22.2741 H       1  LIG1        0.0624
     36 C           9.8586   10.1414   22.6041 C.ar    1  LIG1       -0.0606
     37 H           9.6466   10.3544   21.7030 H       1  LIG1        0.0618
     38 C           9.8532   11.1472   23.5708 C.ar    1  LIG1       -0.0540
     39 H           9.6717   12.0463   23.3238 H       1  LIG1        0.0624
     40 C          10.1169   10.8233   24.9091 C.ar    1  LIG1       -0.0173
     41 C          10.5162    6.5268   25.8462 C.ar    1  LIG1       -0.0463
     42 H           9.9929    7.0261   26.4621 H       1  LIG1        0.0630
     43 C          10.8996    5.2217   26.1760 C.ar    1  LIG1       -0.0173
     44 C          11.6340    4.4844   25.2397 C.ar    1  LIG1       -0.0540
     45 H          11.8655    3.5821   25.4265 H       1  LIG1        0.0624
     46 C          12.0268    5.0622   24.0396 C.ar    1  LIG1       -0.0606
     47 H          12.5386    4.5581   23.4181 H       1  LIG1        0.0618
     48 C          11.6760    6.3704   23.7430 C.ar    1  LIG1       -0.0540
     49 H          11.9735    6.7659   22.9321 H       1  LIG1        0.0624
     50 C          10.8859    7.1139   24.6302 C.ar    1  LIG1       -0.0173
     51 C           9.3840    4.9214   28.1656 C.ar    1  LIG1       -0.0463
     52 H           8.7419    5.4770   27.7395 H       1  LIG1        0.0630
     53 C           9.1033    4.3971   29.4382 C.ar    1  LIG1       -0.0173
     54 C          10.0577    3.5754   30.0537 C.ar    1  LIG1       -0.0540
     55 H           9.8835    3.2105   30.9135 H       1  LIG1        0.0624
     56 C          11.2581    3.2923   29.4119 C.ar    1  LIG1       -0.0606
     57 H          11.8989    2.7336   29.8358 H       1  LIG1        0.0618
     58 C          11.5280    3.8207   28.1541 C.ar    1  LIG1       -0.0540
     59 H          12.3532    3.6237   27.7266 H       1  LIG1        0.0624
     60 C          10.5898    4.6425   27.5123 C.ar    1  LIG1       -0.0173
     61 C           7.2344    5.9766   30.0445 C.ar    1  LIG1       -0.0463
     62 H           7.6159    6.6282   29.4680 H       1  LIG1        0.0630
     63 C           6.0797    6.2967   30.7724 C.ar    1  LIG1       -0.0173
     64 C           5.5259    5.3149   31.6103 C.ar    1  LIG1       -0.0540
     65 H           4.7530    5.5169   32.1243 H       1  LIG1        0.0624
     66 C           6.0960    4.0539   31.6948 C.ar    1  LIG1       -0.0606
     67 H           5.6983    3.3913   32.2475 H       1  LIG1        0.0618
     68 C           7.2435    3.7554   30.9765 C.ar    1  LIG1       -0.0540
     69 H           7.6308    2.8908   31.0461 H       1  LIG1        0.0624
     70 C           7.8370    4.7178   30.1491 C.ar    1  LIG1       -0.0173
     71 C           6.3842   10.8013   25.3463 C.ar    2  LIG2       -0.0463
     72 H           7.0617   10.6411   24.6996 H       2  LIG2        0.0630
     73 C           6.0497   12.1181   25.6702 C.ar    2  LIG2       -0.0173
     74 C           5.0498   12.3473   26.6263 C.ar    2  LIG2       -0.0540
     75 H           4.8295   13.2364   26.8782 H       2  LIG2        0.0624
     76 C           4.3810   11.2765   27.2054 C.ar    2  LIG2       -0.0606
     77 H           3.6856   11.4387   27.8320 H       2  LIG2        0.0618
     78 C           4.7195    9.9737   26.8772 C.ar    2  LIG2       -0.0540
     79 H           4.2539    9.2510   27.2815 H       2  LIG2        0.0624
     80 C           5.7450    9.7099   25.9519 C.ar    2  LIG2       -0.0173
     81 C           6.8164   13.3156   23.6122 C.ar    2  LIG2       -0.0463
     82 H           6.4654   12.5931   23.1051 H       2  LIG2        0.0630
     83 C           7.3985   14.3965   22.9354 C.ar    2  LIG2       -0.0173
     84 C           7.9775   15.3991   23.7211 C.ar    2  LIG2       -0.0540
     85 H           8.4218   16.1251   23.2991 H       2  LIG2        0.0624
     86 C           7.9135   15.3507   25.1104 C.ar    2  LIG2       -0.0606
     87 H           8.3174   16.0414   25.6224 H       2  LIG2        0.0618
     88 C           7.2697   14.3107   25.7560 C.ar    2  LIG2       -0.0540
     89 H           7.1925   14.3092   26.7029 H       2  LIG2        0.0624
     90 C           6.7343   13.2633   25.0045 C.ar    2  LIG2       -0.0173
     91 C           6.6614   13.5567   20.6659 C.ar    2  LIG2       -0.0463
     92 H           6.3699   12.7522   21.0784 H       2  LIG2        0.0630
     93 C           6.4294   13.7398   19.2954 C.ar    2  LIG2       -0.0173
     94 C           6.8604   14.9144   18.6798 C.ar    2  LIG2       -0.0540
     95 H           6.6797   15.0697   17.7602 H       2  LIG2        0.0624
     96 C           7.5566   15.8538   19.4275 C.ar    2  LIG2       -0.0606
     97 H           7.8855   16.6382   19.0042 H       2  LIG2        0.0618
     98 C           7.7794   15.6641   20.7846 C.ar    2  LIG2       -0.0540
     99 H           8.2601   16.3211   21.2743 H       2  LIG2        0.0624
    100 C           7.3088   14.5219   21.4457 C.ar    2  LIG2       -0.0173
    101 C           6.2343   11.3640   18.5973 C.ar    2  LIG2       -0.0463
    102 H           6.9468   11.1727   19.1960 H       2  LIG2        0.0630
    103 C           5.6917   10.3257   17.8365 C.ar    2  LIG2       -0.0173
    104 C           4.6031   10.6138   16.9994 C.ar    2  LIG2       -0.0540
    105 H           4.1967    9.9196   16.4941 H       2  LIG2        0.0624
    106 C           4.1177   11.9169   16.9082 C.ar    2  LIG2       -0.0606
    107 H           3.3792   12.1027   16.3404 H       2  LIG2        0.0618
    108 C           4.6978   12.9468   17.6350 C.ar    2  LIG2       -0.0540
    109 H           4.3747   13.8354   17.5428 H       2  LIG2        0.0624
    110 C           5.7614   12.6732   18.5053 C.ar    2  LIG2       -0.0173
    111 C           6.8828    8.4920   19.0600 C.ar    2  LIG2       -0.0463
    112 H           6.8486    9.0261   19.8449 H       2  LIG2        0.0630
    113 C           7.5012    7.2409   19.1142 C.ar    2  LIG2       -0.0173
    114 C           7.5454    6.4684   17.9360 C.ar    2  LIG2       -0.0540
    115 H           7.9683    5.6177   17.9450 H       2  LIG2        0.0624
    116 C           6.9758    6.9422   16.7642 C.ar    2  LIG2       -0.0606
    117 H           7.0068    6.4081   15.9793 H       2  LIG2        0.0618
    118 C           6.3618    8.1840   16.7216 C.ar    2  LIG2       -0.0540
    119 H           5.9759    8.4962   15.9117 H       2  LIG2        0.0624
    120 C           6.3110    8.9793   17.8766 C.ar    2  LIG2       -0.0173
    121 C           7.4260    7.0022   21.6197 C.ar    2  LIG2       -0.0463
    122 H           6.7505    7.6694   21.6467 H       2  LIG2        0.0630
    123 C           7.7985    6.3585   22.8072 C.ar    2  LIG2       -0.0173
    124 C           8.8208    5.4077   22.7606 C.ar    2  LIG2       -0.0540
    125 H           9.0721    4.9451   23.5515 H       2  LIG2        0.0624
    126 C           9.4735    5.1342   21.5619 C.ar    2  LIG2       -0.0606
    127 H          10.1921    4.5129   21.5480 H       2  LIG2        0.0618
    128 C           9.0835    5.7614   20.3852 C.ar    2  LIG2       -0.0540
    129 H           9.5343    5.5639   19.5728 H       2  LIG2        0.0624
    130 C           8.0269    6.6852   20.3906 C.ar    2  LIG2       -0.0173
    131 C           6.7455    7.9852   24.4077 C.ar    2  LIG2       -0.0463
    132 H           6.8971    8.6723   23.7695 H       2  LIG2        0.0630
    133 C           6.1415    8.3114   25.6350 C.ar    2  LIG2       -0.0173
    134 C           5.9243    7.2799   26.5626 C.ar    2  LIG2       -0.0540
    135 H           5.5308    7.4769   27.4043 H       2  LIG2        0.0624
    136 C           6.2804    5.9770   26.2567 C.ar    2  LIG2       -0.0606
    137 H           6.1129    5.2862   26.8872 H       2  LIG2        0.0618
    138 C           6.8793    5.6639   25.0410 C.ar    2  LIG2       -0.0540
    139 H           7.1194    4.7655   24.8467 H       2  LIG2        0.0624
    140 C           7.1286    6.6752   24.1026 C.ar    2  LIG2       -0.0173
    141 C           3.4094   10.9155   23.2040 C.3     1  LIG1        0.0232
    142 H           3.6028   10.8491   24.1625 H       1  LIG1        0.0382
    143 H           2.6475   10.3397   22.9840 H       1  LIG1        0.0382
    144 H           3.1929   11.8442   22.9781 H       1  LIG1        0.0382
    145 C           4.5800   10.4882   22.4399 C.1     1  LIG1        0.0591
    146 N           5.5188   10.1828   21.8510 N.1     1  LIG1       -0.1969
@<TRIPOS>BOND
     1   119   118    1
     2   117   116    1
     3   107   106    1
     4   105   104    1
     5   118   116   ar
     6   118   120   ar
     7   116   114   ar
     8   106   104   ar
     9   106   108   ar
    10   104   103   ar
    11   109   108    1
    12   108   110   ar
    13    95    94    1
    14   103   120    1
    15   103   101   ar
    16   120   111   ar
    17   114   115    1
    18   114   113   ar
    19   110   101   ar
    20   110    93    1
    21   101   102    1
    22    94    93   ar
    23    94    96   ar
    24    97    96    1
    25   111   113   ar
    26   111   112    1
    27   113   130    1
    28    93    91   ar
    29    96    98   ar
    30   129   128    1
    31   128   130   ar
    32   128   126   ar
    33   130   121   ar
    34    91    92    1
    35    91   100   ar
    36    98    99    1
    37    98   100   ar
    38   100    83    1
    39   127   126    1
    40   126   124   ar
    41   121   122    1
    42   121   123   ar
    43    37    36    1
    44   146   145    3
    45    35    34    1
    46   145   141    1
    47    36    34   ar
    48    36    38   ar
    49   124   123   ar
    50   124   125    1
    51   123   140    1
    52    49    48    1
    53    83    81   ar
    54    83    84   ar
    55    34    33   ar
    56   144   141    1
    57   143   141    1
    58    82    81    1
    59   141   142    1
    60    85    84    1
    61    39    38    1
    62    47    46    1
    63    38    40   ar
    64    81    90   ar
    65    84    86   ar
    66    48    46   ar
    67    48    50   ar
    68   132   131    1
    69    46    44   ar
    70   140   131   ar
    71   140   138   ar
    72    33    50    1
    73    33    31   ar
    74   131   133   ar
    75    50    41   ar
    76    72    71    1
    77   139   138    1
    78    40    31   ar
    79    40    23    1
    80    90    73    1
    81    90    88   ar
    82   138   136   ar
    83    86    87    1
    84    86    88   ar
    85    25    24    1
    86    44    45    1
    87    44    43   ar
    88    31    32    1
    89    71    73   ar
    90    71    80   ar
    91   133    80    1
    92   133   134   ar
    93    73    74   ar
    94    88    89    1
    95    41    43   ar
    96    41    42    1
    97    24    23   ar
    98    24    26   ar
    99    80    78   ar
   100    23    21   ar
   101    43    60    1
   102   136   134   ar
   103   136   137    1
   104   134   135    1
   105    74    75    1
   106    74    76   ar
   107    27    26    1
   108    78    76   ar
   109    78    79    1
   110    26    28   ar
   111    21    22    1
   112    21    30   ar
   113    76    77    1
   114    60    58   ar
   115    60    51   ar
   116    59    58    1
   117    52    51    1
   118    28    30   ar
   119    28    29    1
   120    30    13    1
   121    58    56   ar
   122    51    53   ar
   123    12    11    1
   124    13    11   ar
   125    13    14   ar
   126    11    20   ar
   127    56    57    1
   128    56    54   ar
   129    53    54   ar
   130    53    70    1
   131    62    61    1
   132    15    14    1
   133    14    16   ar
   134    61    70   ar
   135    61    63   ar
   136    54    55    1
   137    70    68   ar
   138    20     3    1
   139    20    18   ar
   140     2     1    1
   141     3     1   ar
   142     3     4   ar
   143     1    10   ar
   144     5     4    1
   145     4     6   ar
   146    10    63    1
   147    10     8   ar
   148    16    18   ar
   149    16    17    1
   150     6     8   ar
   151     6     7    1
   152    63    64   ar
   153     8     9    1
   154    18    19    1
   155    68    69    1
   156    68    66   ar
   157    64    66   ar
   158    64    65    1
   159    66    67    1
