@<TRIPOS>MOLECULE
?
 54 57 0 0 0
SMALL
GASTEIGER

@<TRIPOS>ATOM
      1 C           5.7402    2.5177    4.9342 C.ar    1  LIG1        0.0406
      2 C           6.5872    2.1655    5.9718 C.ar    1  LIG1       -0.0400
      3 H           7.4565    2.4939    6.0192 H       1  LIG1        0.0636
      4 C           6.0852    1.3017    6.9388 C.ar    1  LIG1       -0.0600
      5 H           6.6271    1.0580    7.6543 H       1  LIG1        0.0618
      6 C           4.8178    0.8035    6.8640 C.ar    1  LIG1       -0.0613
      7 H           4.5165    0.2115    7.5154 H       1  LIG1        0.0618
      8 C           3.9673    1.1737    5.8175 C.ar    1  LIG1       -0.0554
      9 H           3.1027    0.8359    5.7653 H       1  LIG1        0.0621
     10 C           4.4369    2.0497    4.8645 C.ar    1  LIG1       -0.0028
     11 C           3.7520    2.6941    3.6845 C.3     1  LIG1        0.1491
     12 C           4.9210    3.4476    3.0063 C.2     1  LIG1        0.2385
     13 C           2.9850    1.7239    2.7608 C.3     1  LIG1        0.0863
     14 H           2.2643    1.3213    3.2890 H       1  LIG1        0.0435
     15 C           2.3359    2.4587    1.5740 C.3     1  LIG1       -0.0020
     16 H           3.0213    2.6937    0.9290 H       1  LIG1        0.0330
     17 H           1.7048    1.8661    1.1367 H       1  LIG1        0.0330
     18 C           1.6292    3.6964    2.0163 C.2     1  LIG1        0.0262
     19 C           1.7818    4.3257    3.1869 C.2     1  LIG1        0.0150
     20 C           2.7769    3.7998    4.1566 C.2     1  LIG1        0.1807
     21 C           1.0618    5.5825    3.6189 C.3     1  LIG1        0.0020
     22 H           0.8106    5.4990    4.5515 H       1  LIG1        0.0363
     23 H           0.2478    5.6757    3.0992 H       1  LIG1        0.0363
     24 C           1.9066    6.8300    3.4433 C.ar    1  LIG1       -0.0428
     25 C           2.5930    7.0673    2.2651 C.ar    1  LIG1       -0.0561
     26 H           2.5736    6.4263    1.5911 H       1  LIG1        0.0621
     27 C           3.3028    8.2261    2.0657 C.ar    1  LIG1       -0.0312
     28 H           3.7522    8.3818    1.2660 H       1  LIG1        0.0640
     29 C           3.3278    9.1460    3.0826 C.ar    1  LIG1        0.1262
     30 C           2.7059    8.9259    4.2750 C.ar    1  LIG1       -0.0312
     31 H           2.7590    9.5525    4.9597 H       1  LIG1        0.0640
     32 C           1.9981    7.7574    4.4471 C.ar    1  LIG1       -0.0561
     33 H           1.5736    7.5954    5.2587 H       1  LIG1        0.0621
     34 C           7.2816    3.9871    3.5430 C.3     1  LIG1        0.0083
     35 H           7.2059    4.5093    2.7397 H       1  LIG1        0.0433
     36 H           7.9542    3.3133    3.4243 H       1  LIG1        0.0433
     37 H           7.5266    4.5593    4.2739 H       1  LIG1        0.0433
     38 C           3.8488    0.5969    2.2367 C.2     1  LIG1        0.3123
     39 C           3.7309   -1.5635    1.2103 C.3     1  LIG1        0.0897
     40 H           4.3326   -1.9980    1.8355 H       1  LIG1        0.0694
     41 H           4.2471   -1.2677    0.4438 H       1  LIG1        0.0694
     42 C           2.6739   -2.5063    0.7807 C.3     1  LIG1       -0.0306
     43 H           2.1679   -2.7909    1.5460 H       1  LIG1        0.0262
     44 H           3.0773   -3.2703    0.3619 H       1  LIG1        0.0262
     45 H           2.0901   -2.0699    0.1566 H       1  LIG1        0.0262
     46 CL          0.5718    4.3427    0.7902 Cl      1  LIG1       -0.0878
     47 N           6.0048    3.3532    3.8304 N.am    1  LIG1       -0.2731
     48 N           4.1088   10.3780    2.8714 N.pl3   1  LIG1        0.0564
     49 O           4.8816    4.0734    1.9600 O.2     1  LIG1       -0.2738
     50 O           2.8618    4.2743    5.2761 O.2     1  LIG1       -0.2909
     51 O           5.0366    0.6178    2.1402 O.2     1  LIG1       -0.2505
     52 O           3.0790   -0.4236    1.8494 O.3     1  LIG1       -0.4647
     53 O           4.4798   10.9820    3.8918 O.2     1  LIG1       -0.1261
     54 O           4.3649   10.7318    1.7644 O.2     1  LIG1       -0.1261
@<TRIPOS>BOND
     1    45    42    1
     2    44    42    1
     3    41    39    1
     4    42    39    1
     5    42    43    1
     6    46    18    1
     7    16    15    1
     8    17    15    1
     9    39    40    1
    10    39    52    1
    11    28    27    1
    12    15    18    1
    13    15    13    1
    14    26    25    1
    15    54    48    2
    16    52    38    1
    17    49    12    2
    18    18    19    2
    19    27    25   ar
    20    27    29   ar
    21    51    38    2
    22    38    13    1
    23    25    24   ar
    24    35    34    1
    25    13    14    1
    26    13    11    1
    27    48    29    1
    28    48    53    2
    29    12    11    1
    30    12    47   am
    31    29    30   ar
    32    23    21    1
    33    19    21    1
    34    19    20    1
    35    36    34    1
    36    24    21    1
    37    24    32   ar
    38    34    47    1
    39    34    37    1
    40    21    22    1
    41    11    20    1
    42    11    10    1
    43    47     1    1
    44    20    50    2
    45    30    32   ar
    46    30    31    1
    47    32    33    1
    48    10     1   ar
    49    10     8   ar
    50     1     2   ar
    51     9     8    1
    52     8     6   ar
    53     2     3    1
    54     2     4   ar
    55     6     4   ar
    56     6     7    1
    57     4     5    1
