@<TRIPOS>MOLECULE
?
 60 62 0 0 0
SMALL
GASTEIGER

@<TRIPOS>ATOM
      1 C          12.5390    9.2697    3.3653 C.ar    1  LIG1        0.0179
      2 C          12.1221    8.5030    4.4497 C.ar    1  LIG1       -0.0471
      3 H          12.7385    8.2407    5.1234 H       1  LIG1        0.0629
      4 C          10.7783    8.1269    4.5275 C.ar    1  LIG1       -0.0502
      5 H          10.4819    7.5824    5.2463 H       1  LIG1        0.0625
      6 C           9.8693    8.5470    3.5551 C.ar    1  LIG1        0.0175
      7 C          10.3204    9.3380    2.5003 C.ar    1  LIG1       -0.0502
      8 H           9.7026    9.6420    1.8452 H       1  LIG1        0.0625
      9 C          11.6577    9.6868    2.3913 C.ar    1  LIG1       -0.0471
     10 H          11.9623   10.2055    1.6554 H       1  LIG1        0.0629
     11 C           8.4245    8.1595    3.5987 C.2     1  LIG1        0.1639
     12 C           8.0617    6.8772    4.3113 C.3     1  LIG1        0.0223
     13 H           8.1613    7.0107    5.2868 H       1  LIG1        0.0353
     14 H           8.6922    6.1651    4.0374 H       1  LIG1        0.0353
     15 C           6.6331    6.4199    4.0141 C.3     1  LIG1        0.0518
     16 H           6.0241    7.2010    4.1541 H       1  LIG1        0.0407
     17 C           6.1667    5.2726    4.9569 C.3     1  LIG1        0.0658
     18 H           5.2249    5.0231    4.7345 H       1  LIG1        0.0557
     19 C           7.0279    4.0555    4.8994 C.2     1  LIG1       -0.0576
     20 H           7.1944    3.5580    4.1074 H       1  LIG1        0.0592
     21 C           7.5323    3.7507    6.0912 C.2     1  LIG1       -0.0013
     22 H           8.1001    3.0105    6.2701 H       1  LIG1        0.0667
     23 C           7.0777    4.7342    7.0978 C.2     1  LIG1        0.2485
     24 C           5.4290    6.6543    6.8691 C.2     1  LIG1        0.4105
     25 C           4.9724    8.1087    8.7610 C.3     1  LIG1        0.1068
     26 C           5.5109    8.0996   10.1830 C.3     1  LIG1       -0.0253
     27 H           5.2201    7.2806   10.6374 H       1  LIG1        0.0268
     28 H           5.1684    8.8799   10.6669 H       1  LIG1        0.0268
     29 H           6.4898    8.1315   10.1613 H       1  LIG1        0.0268
     30 C           3.4735    7.8918    8.7610 C.3     1  LIG1       -0.0253
     31 H           3.2632    7.0675    9.2464 H       1  LIG1        0.0268
     32 H           3.1545    7.8183    7.8384 H       1  LIG1        0.0268
     33 H           3.0337    8.6509    9.1997 H       1  LIG1        0.0268
     34 C           5.4055    9.3660    8.0173 C.3     1  LIG1       -0.0253
     35 H           6.3820    9.4456    8.0515 H       1  LIG1        0.0268
     36 H           4.9996   10.1516    8.4374 H       1  LIG1        0.0268
     37 H           5.1159    9.3091    7.0822 H       1  LIG1        0.0268
     38 C           6.4841    5.9596    2.5640 C.2     1  LIG1        0.1687
     39 C           5.1262    5.7678    2.0011 C.ar    1  LIG1        0.0180
     40 C           3.9712    6.1583    2.6792 C.ar    1  LIG1       -0.0478
     41 H           4.0509    6.5769    3.5287 H       1  LIG1        0.0626
     42 C           2.7167    5.9498    2.1451 C.ar    1  LIG1       -0.0193
     43 H           1.9446    6.2448    2.6138 H       1  LIG1        0.0654
     44 C           2.5860    5.3098    0.9273 C.ar    1  LIG1        0.1201
     45 C           0.2088    5.3378    1.0300 C.3     1  LIG1        0.0788
     46 H          -0.5701    5.0580    0.5041 H       1  LIG1        0.0660
     47 H           0.1781    6.3069    1.1684 H       1  LIG1        0.0660
     48 H           0.1968    4.8828    1.8981 H       1  LIG1        0.0660
     49 C           3.7331    4.9298    0.2147 C.ar    1  LIG1       -0.0193
     50 H           3.6522    4.5196   -0.6379 H       1  LIG1        0.0654
     51 C           4.9764    5.1558    0.7577 C.ar    1  LIG1       -0.0478
     52 H           5.7497    4.8889    0.2754 H       1  LIG1        0.0626
     53 N           6.2523    5.6374    6.3891 N.am    1  LIG1       -0.1963
     54 O           7.5818    8.8541    3.0649 O.2     1  LIG1       -0.2920
     55 O           7.3542    4.7767    8.2779 O.2     1  LIG1       -0.2701
     56 O           4.6026    7.1646    6.1434 O.2     1  LIG1       -0.2258
     57 O           5.6713    6.9424    8.1480 O.3     1  LIG1       -0.4442
     58 O           7.4783    5.7374    1.9058 O.2     1  LIG1       -0.2917
     59 O           1.3964    4.9966    0.3342 O.3     1  LIG1       -0.4951
     60 BR         14.3668    9.7493    3.2439 Br      1  LIG1       -0.0503
@<TRIPOS>BOND
     1    50    49    1
     2    49    51   ar
     3    49    44   ar
     4    52    51    1
     5    59    44    1
     6    59    45    1
     7    46    45    1
     8    51    39   ar
     9    44    42   ar
    10    45    47    1
    11    45    48    1
    12    10     9    1
    13     8     7    1
    14    58    38    2
    15    39    38    1
    16    39    40   ar
    17    42    43    1
    18    42    40   ar
    19     9     7   ar
    20     9     1   ar
    21     7     6   ar
    22    38    15    1
    23    40    41    1
    24    54    11    2
    25    60     1    1
    26     1     2   ar
    27     6    11    1
    28     6     4   ar
    29    11    12    1
    30    15    16    1
    31    15    12    1
    32    15    17    1
    33    14    12    1
    34    20    19    1
    35    12    13    1
    36     2     4   ar
    37     2     3    1
    38     4     5    1
    39    18    17    1
    40    19    17    1
    41    19    21    2
    42    17    53    1
    43    21    22    1
    44    21    23    1
    45    56    24    2
    46    53    24   am
    47    53    23   am
    48    24    57    1
    49    37    34    1
    50    23    55    2
    51    32    30    1
    52    34    35    1
    53    34    36    1
    54    34    25    1
    55    57    25    1
    56    30    25    1
    57    30    33    1
    58    30    31    1
    59    25    26    1
    60    29    26    1
    61    26    27    1
    62    26    28    1
