@<TRIPOS>MOLECULE
?
 142 148 0 0 0
SMALL
GASTEIGER

@<TRIPOS>ATOM
      1 C           3.0395   32.4011    6.4750 C.2     1  LIG1        0.3396
      2 C           4.0776   31.3525    6.4273 C.ar    1  LIG1        0.0590
      3 C           4.8909   31.1803    7.5355 C.ar    1  LIG1       -0.0478
      4 H           4.7592   31.7027    8.3163 H       1  LIG1        0.0626
      5 C           5.9026   30.2289    7.4889 C.ar    1  LIG1       -0.0610
      6 H           6.4625   30.0962    8.2448 H       1  LIG1        0.0618
      7 C           6.0958   29.4790    6.3579 C.ar    1  LIG1       -0.0617
      8 H           6.7993   28.8408    6.3286 H       1  LIG1        0.0618
      9 C           5.2795   29.6445    5.2637 C.ar    1  LIG1       -0.0610
     10 H           5.4152   29.1149    4.4862 H       1  LIG1        0.0618
     11 C           4.2696   30.5714    5.2962 C.ar    1  LIG1       -0.0478
     12 H           3.7001   30.6782    4.5437 H       1  LIG1        0.0626
     13 C           1.2832   33.4391    5.3331 C.3     1  LIG1        0.1506
     14 H           0.8632   33.4968    6.2278 H       1  LIG1        0.0778
     15 H           0.5810   33.1794    4.6857 H       1  LIG1        0.0778
     16 C           1.8166   34.7941    4.9579 C.2     1  LIG1        0.1741
     17 C           0.8216   35.8913    5.2019 C.3     1  LIG1        0.0501
     18 H           0.9355   36.2193    6.1291 H       1  LIG1        0.0380
     19 H          -0.0890   35.5122    5.1292 H       1  LIG1        0.0380
     20 C           0.9228   37.0740    4.2627 C.3     1  LIG1        0.1501
     21 H           1.7934   37.5517    4.3875 H       1  LIG1        0.0777
     22 C           1.7861   36.8821    2.0343 C.2     1  LIG1        0.3396
     23 C           1.6375   36.1693    0.7407 C.ar    1  LIG1        0.0590
     24 C           0.5638   35.3362    0.4750 C.ar    1  LIG1       -0.0478
     25 H          -0.1052   35.1948    1.1354 H       1  LIG1        0.0626
     26 C           0.4674   34.7090   -0.7537 C.ar    1  LIG1       -0.0610
     27 H          -0.2644   34.1318   -0.9380 H       1  LIG1        0.0618
     28 C           1.4350   34.9230   -1.7134 C.ar    1  LIG1       -0.0617
     29 H           1.3585   34.5021   -2.5614 H       1  LIG1        0.0618
     30 C           2.5021   35.7345   -1.4564 C.ar    1  LIG1       -0.0610
     31 H           3.1713   35.8634   -2.1178 H       1  LIG1        0.0618
     32 C           2.6045   36.3646   -0.2321 C.ar    1  LIG1       -0.0478
     33 H           3.3428   36.9360   -0.0553 H       1  LIG1        0.0626
     34 C          -0.2464   38.0240    4.4890 C.3     1  LIG1        0.1742
     35 H          -1.1108   37.5228    4.4352 H       1  LIG1        0.0807
     36 C          -0.2652   39.1866    3.5449 C.3     1  LIG1        0.1332
     37 H           0.5927   39.6777    3.5851 H       1  LIG1        0.0736
     38 H          -0.4096   38.8744    2.6167 H       1  LIG1        0.0736
     39 C          -1.8688   40.8566    3.0331 C.2     1  LIG1        0.3393
     40 C          -2.9729   41.6926    3.5807 C.ar    1  LIG1        0.0590
     41 C          -3.7047   42.4588    2.6926 C.ar    1  LIG1       -0.0478
     42 H          -3.4911   42.4386    1.7676 H       1  LIG1        0.0626
     43 C          -4.7387   43.2525    3.1329 C.ar    1  LIG1       -0.0610
     44 H          -5.2355   43.7758    2.5147 H       1  LIG1        0.0618
     45 C          -5.0473   43.2852    4.4602 C.ar    1  LIG1       -0.0617
     46 H          -5.7571   43.8383    4.7671 H       1  LIG1        0.0618
     47 C          -4.3303   42.5166    5.3656 C.ar    1  LIG1       -0.0610
     48 H          -4.5555   42.5348    6.2874 H       1  LIG1        0.0618
     49 C          -3.2857   41.7215    4.9243 C.ar    1  LIG1       -0.0478
     50 H          -2.7884   41.1977    5.5424 H       1  LIG1        0.0626
     51 C          -1.0231   38.3160    6.7407 C.2     1  LIG1        0.3397
     52 C          -0.6570   38.8725    8.0723 C.ar    1  LIG1        0.0590
     53 C           0.5181   39.5762    8.2968 C.ar    1  LIG1       -0.0478
     54 H           1.1302   39.7306    7.5865 H       1  LIG1        0.0626
     55 C           0.7885   40.0553    9.5742 C.ar    1  LIG1       -0.0610
     56 H           1.5867   40.5435    9.7391 H       1  LIG1        0.0618
     57 C          -0.1020   39.8225   10.6055 C.ar    1  LIG1       -0.0617
     58 H           0.0937   40.1395   11.4785 H       1  LIG1        0.0618
     59 C          -1.2634   39.1346   10.3767 C.ar    1  LIG1       -0.0610
     60 H          -1.8762   38.9851   11.0881 H       1  LIG1        0.0618
     61 C          -1.5442   38.6556    9.1123 C.ar    1  LIG1       -0.0478
     62 H          -2.3490   38.1770    8.9561 H       1  LIG1        0.0626
     63 C           1.0632   29.6219    0.9792 C.2     2  LIG2        0.3396
     64 C           0.0187   30.6719    1.0085 C.ar    2  LIG2        0.0590
     65 C          -0.1268   31.5473    2.0712 C.ar    2  LIG2       -0.0478
     66 H           0.4698   31.4959    2.8086 H       2  LIG2        0.0626
     67 C          -1.1360   32.4973    2.0680 C.ar    2  LIG2       -0.0610
     68 H          -1.2368   33.0880    2.8043 H       2  LIG2        0.0618
     69 C          -1.9894   32.5781    0.9955 C.ar    2  LIG2       -0.0617
     70 H          -2.6834   33.2275    0.9933 H       2  LIG2        0.0618
     71 C          -1.8463   31.7272   -0.0737 C.ar    2  LIG2       -0.0610
     72 H          -2.4335   31.7989   -0.8166 H       2  LIG2        0.0618
     73 C          -0.8526   30.7720   -0.0694 C.ar    2  LIG2       -0.0478
     74 H          -0.7625   30.1779   -0.8068 H       2  LIG2        0.0626
     75 C           2.7984   28.5873    2.2252 C.3     2  LIG2        0.1506
     76 H           3.5584   28.9370    2.7544 H       2  LIG2        0.0778
     77 H           3.1350   28.3646    1.3208 H       2  LIG2        0.0778
     78 C           2.2754   27.3367    2.8758 C.2     2  LIG2        0.1741
     79 C           3.3078   26.3030    3.2370 C.3     2  LIG2        0.0501
     80 H           3.0694   25.9018    4.1088 H       2  LIG2        0.0380
     81 H           4.1861   26.7484    3.3400 H       2  LIG2        0.0380
     82 C           3.4335   25.1933    2.1972 C.3     2  LIG2        0.1501
     83 H           2.6053   24.6320    2.1764 H       2  LIG2        0.0777
     84 C           2.8657   25.4617   -0.1301 C.2     2  LIG2        0.3396
     85 C           3.3946   25.9966   -1.4000 C.ar    2  LIG2        0.0590
     86 C           2.7428   25.6676   -2.5874 C.ar    2  LIG2       -0.0478
     87 H           1.9531   25.1371   -2.5679 H       2  LIG2        0.0626
     88 C           3.2531   26.1159   -3.7965 C.ar    2  LIG2       -0.0610
     89 H           2.8112   25.8922   -4.6076 H       2  LIG2        0.0618
     90 C           4.3935   26.8788   -3.8247 C.ar    2  LIG2       -0.0617
     91 H           4.7429   27.1717   -4.6586 H       2  LIG2        0.0618
     92 C           5.0362   27.2265   -2.6601 C.ar    2  LIG2       -0.0610
     93 H           5.8135   27.7729   -2.6893 H       2  LIG2        0.0618
     94 C           4.5437   26.7758   -1.4401 C.ar    2  LIG2       -0.0478
     95 H           4.9928   27.0033   -0.6344 H       2  LIG2        0.0626
     96 C           4.6634   24.3280    2.4419 C.3     2  LIG2        0.1742
     97 H           5.4846   24.8917    2.3683 H       2  LIG2        0.0807
     98 C           4.7811   23.1592    1.5019 C.3     2  LIG2        0.1332
     99 H           4.7547   23.4680    0.5617 H       2  LIG2        0.0736
    100 H           5.6352   22.6791    1.6526 H       2  LIG2        0.0736
    101 C           3.3219   21.3987    0.8241 C.2     2  LIG2        0.3393
    102 C           2.2154   20.5214    1.2709 C.ar    2  LIG2        0.0590
    103 C           1.6387   19.6585    0.3448 C.ar    2  LIG2       -0.0478
    104 H           1.9612   19.6392   -0.5476 H       2  LIG2        0.0626
    105 C           0.6001   18.8297    0.7190 C.ar    2  LIG2       -0.0610
    106 H           0.2072   18.2443    0.0835 H       2  LIG2        0.0618
    107 C           0.1369   18.8547    2.0083 C.ar    2  LIG2       -0.0617
    108 H          -0.5758   18.2828    2.2653 H       2  LIG2        0.0618
    109 C           0.7009   19.7099    2.9355 C.ar    2  LIG2       -0.0610
    110 H           0.3711   19.7258    3.8258 H       2  LIG2        0.0618
    111 C           1.7438   20.5406    2.5711 C.ar    2  LIG2       -0.0478
    112 H           2.1349   21.1207    3.2120 H       2  LIG2        0.0626
    113 C           5.6503   23.4925    4.4504 C.2     2  LIG2        0.3397
    114 C           5.3838   23.0365    5.8374 C.ar    2  LIG2        0.0590
    115 C           6.3446   22.2818    6.4826 C.ar    2  LIG2       -0.0478
    116 H           7.1319   22.0202    6.0195 H       2  LIG2        0.0626
    117 C           6.1656   21.9047    7.8012 C.ar    2  LIG2       -0.0610
    118 H           6.8199   21.3708    8.2350 H       2  LIG2        0.0618
    119 C           5.0343   22.3054    8.4877 C.ar    2  LIG2       -0.0617
    120 H           4.9262   22.0779    9.4040 H       2  LIG2        0.0618
    121 C           4.0616   23.0389    7.8370 C.ar    2  LIG2       -0.0610
    122 H           3.2740   23.2948    8.3022 H       2  LIG2        0.0618
    123 C           4.2255   23.4031    6.5173 C.ar    2  LIG2       -0.0478
    124 H           3.5500   23.9009    6.0738 H       2  LIG2        0.0626
    125 O           2.8637   33.1606    7.3820 O.2     1  LIG1       -0.2449
    126 O           2.2925   32.4266    5.3563 O.3     1  LIG1       -0.4535
    127 O           2.9185   34.9504    4.4995 O.2     1  LIG1       -0.2937
    128 O           0.8153   36.5497    2.9129 O.3     1  LIG1       -0.4536
    129 O           2.6596   37.6724    2.2764 O.2     1  LIG1       -0.2449
    130 O          -1.3544   40.0365    3.9682 O.3     1  LIG1       -0.4573
    131 O          -1.4761   40.8961    1.8963 O.2     1  LIG1       -0.2450
    132 O          -0.0501   38.5382    5.8324 O.3     1  LIG1       -0.4506
    133 O          -2.0444   37.7412    6.4967 O.2     1  LIG1       -0.2449
    134 O           1.2590   28.8566    0.0735 O.2     2  LIG2       -0.2449
    135 O           1.7995   29.6017    2.1167 O.3     2  LIG2       -0.4535
    136 O           1.1042   27.1938    3.1049 O.2     2  LIG2       -0.2937
    137 O           3.6651   25.8119    0.9120 O.3     2  LIG2       -0.4536
    138 O           1.8785   24.7912   -0.0067 O.2     2  LIG2       -0.2449
    139 O           3.6640   22.2862    1.7729 O.3     2  LIG2       -0.4573
    140 O           3.8725   21.3400   -0.2494 O.2     2  LIG2       -0.2450
    141 O           4.5254   23.8610    3.8105 O.3     2  LIG2       -0.4506
    142 O           6.7433   23.5454    3.9468 O.2     2  LIG2       -0.2449
@<TRIPOS>BOND
     1    91    90    1
     2    89    88    1
     3    90    88   ar
     4    90    92   ar
     5    88    86   ar
     6    93    92    1
     7    92    94   ar
     8    86    87    1
     9    86    85   ar
    10    29    28    1
    11    31    30    1
    12    28    30   ar
    13    28    26   ar
    14    30    32   ar
    15    94    85   ar
    16    94    95    1
    17    85    84    1
    18    27    26    1
    19    72    71    1
    20    74    73    1
    21    26    24   ar
    22   104   103    1
    23   140   101    2
    24    32    33    1
    25    32    23   ar
    26    84   138    2
    27    84   137    1
    28    71    73   ar
    29    71    69   ar
    30    73    64   ar
    31   134    63    2
    32   106   105    1
    33   103   105   ar
    34   103   102   ar
    35    24    23   ar
    36    24    25    1
    37    99    98    1
    38   105   107   ar
    39    23    22    1
    40   101   102    1
    41   101   139    1
    42   137    82    1
    43    63    64    1
    44    63   135    1
    45    70    69    1
    46    69    67   ar
    47    64    65   ar
    48   102   111   ar
    49    77    75    1
    50    98   100    1
    51    98   139    1
    52    98    96    1
    53    42    41    1
    54   131    39    2
    55   107   108    1
    56   107   109   ar
    57    22   129    2
    58    22   128    1
    59    67    65   ar
    60    67    68    1
    61    65    66    1
    62   135    75    1
    63    83    82    1
    64    82    96    1
    65    82    79    1
    66    75    76    1
    67    75    78    1
    68    97    96    1
    69    96   141    1
    70    44    43    1
    71   111   109   ar
    72   111   112    1
    73    38    36    1
    74    41    43   ar
    75    41    40   ar
    76    78   136    2
    77    78    79    1
    78   128    20    1
    79   109   110    1
    80    39    40    1
    81    39   130    1
    82    43    45   ar
    83    79    81    1
    84    79    80    1
    85    36    37    1
    86    36   130    1
    87    36    34    1
    88    40    49   ar
    89   141   113    1
    90   142   113    2
    91    20    21    1
    92    20    34    1
    93    20    17    1
    94    35    34    1
    95   113   114    1
    96    45    46    1
    97    45    47   ar
    98    10     9    1
    99    34   132    1
   100   127    16    2
   101    12    11    1
   102    15    13    1
   103    49    47   ar
   104    49    50    1
   105    16    17    1
   106    16    13    1
   107    19    17    1
   108    17    18    1
   109     9    11   ar
   110     9     7   ar
   111    11     2   ar
   112    13   126    1
   113    13    14    1
   114   126     1    1
   115    47    48    1
   116   132    51    1
   117   114   115   ar
   118   114   123   ar
   119   116   115    1
   120   124   123    1
   121     8     7    1
   122     7     5   ar
   123     2     1    1
   124     2     3   ar
   125     1   125    2
   126   115   117   ar
   127   133    51    2
   128   123   121   ar
   129    51    52    1
   130     5     3   ar
   131     5     6    1
   132     3     4    1
   133    54    53    1
   134   117   118    1
   135   117   119   ar
   136   121   122    1
   137   121   119   ar
   138    52    53   ar
   139    52    61   ar
   140    53    55   ar
   141   119   120    1
   142    62    61    1
   143    61    59   ar
   144    55    56    1
   145    55    57   ar
   146    59    57   ar
   147    59    60    1
   148    57    58    1
