@<TRIPOS>MOLECULE
C31 H39 N2, C H2 Cl2, Cl
 78 79 0 0 0
SMALL
GASTEIGER

@<TRIPOS>ATOM
      1 C           6.2205    2.3302    3.9092 C.3     1  LIG1        0.1350
      2 C           6.9339    0.2305    3.9881 C.ar    1  LIG1        0.0572
      3 C           7.6740   -0.9398    4.1047 C.ar    1  LIG1       -0.0385
      4 H           8.5545   -0.9389    4.4060 H       1  LIG1        0.0637
      5 C           7.0244   -2.1069    3.7457 C.ar    1  LIG1       -0.0599
      6 H           7.4842   -2.9132    3.7968 H       1  LIG1        0.0618
      7 C           5.6915   -2.1099    3.3068 C.ar    1  LIG1       -0.0599
      8 H           5.2909   -2.9207    3.0919 H       1  LIG1        0.0618
      9 C           4.9565   -0.9476    3.1830 C.ar    1  LIG1       -0.0385
     10 H           4.0747   -0.9463    2.8876 H       1  LIG1        0.0637
     11 C           5.6250    0.2246    3.5308 C.ar    1  LIG1        0.0572
     12 C           8.5157    2.0606    4.7580 C.ar    1  LIG1        0.0426
     13 C           8.6290    2.1545    6.1472 C.ar    1  LIG1       -0.0231
     14 C           9.8114    2.7057    6.6467 C.ar    1  LIG1       -0.0565
     15 H           9.9252    2.7980    7.5648 H       1  LIG1        0.0621
     16 C          10.8129    3.1155    5.7843 C.ar    1  LIG1       -0.0611
     17 H          11.5882    3.4933    6.1315 H       1  LIG1        0.0618
     18 C          10.6763    2.9729    4.4178 C.ar    1  LIG1       -0.0565
     19 H          11.3697    3.2423    3.8584 H       1  LIG1        0.0621
     20 C           9.5146    2.4297    3.8618 C.ar    1  LIG1       -0.0231
     21 C           7.5176    1.7119    7.0735 C.3     1  LIG1       -0.0197
     22 H           6.8948    1.1657    6.5520 H       1  LIG1        0.0344
     23 C           8.0482    0.8517    8.2185 C.3     1  LIG1       -0.0586
     24 H           8.5878    0.1413    7.8622 H       1  LIG1        0.0235
     25 H           7.3116    0.4778    8.7059 H       1  LIG1        0.0235
     26 H           8.5801    1.3943    8.8055 H       1  LIG1        0.0235
     27 C           6.7479    2.9249    7.6014 C.3     1  LIG1       -0.0586
     28 H           5.9858    2.6269    8.1032 H       1  LIG1        0.0235
     29 H           6.4527    3.4635    6.8625 H       1  LIG1        0.0235
     30 H           7.3201    3.4468    8.1687 H       1  LIG1        0.0235
     31 C           9.3753    2.2425    2.3644 C.3     1  LIG1       -0.0197
     32 H           8.5635    1.7141    2.2102 H       1  LIG1        0.0344
     33 C           9.1863    3.5792    1.6613 C.3     1  LIG1       -0.0586
     34 H           8.4466    4.0473    2.0543 H       1  LIG1        0.0235
     35 H           9.0112    3.4282    0.7297 H       1  LIG1        0.0235
     36 H           9.9850    4.1049    1.7556 H       1  LIG1        0.0235
     37 C          10.5442    1.4538    1.8001 C.3     1  LIG1       -0.0586
     38 H          10.4112    1.3144    0.8595 H       1  LIG1        0.0235
     39 H          10.6013    0.6042    2.2456 H       1  LIG1        0.0235
     40 H          11.3576    1.9446    1.9390 H       1  LIG1        0.0235
     41 C           3.9537    2.0432    2.9838 C.ar    1  LIG1        0.0426
     42 C           2.9332    2.2971    3.8894 C.ar    1  LIG1       -0.0231
     43 C           1.7486    2.8043    3.3618 C.ar    1  LIG1       -0.0565
     44 H           1.0379    2.9932    3.9317 H       1  LIG1        0.0621
     45 C           1.6118    3.0320    2.0045 C.ar    1  LIG1       -0.0611
     46 H           0.8169    3.3854    1.6757 H       1  LIG1        0.0618
     47 C           2.6422    2.7403    1.1280 C.ar    1  LIG1       -0.0565
     48 H           2.5277    2.8853    0.2175 H       1  LIG1        0.0621
     49 C           3.8524    2.2294    1.6003 C.ar    1  LIG1       -0.0231
     50 C           3.0824    2.0584    5.3866 C.3     1  LIG1       -0.0197
     51 H           3.9561    1.6379    5.5327 H       1  LIG1        0.0344
     52 C           2.0198    1.0932    5.8996 C.3     1  LIG1       -0.0586
     53 H           2.1838    0.8998    6.8245 H       1  LIG1        0.0235
     54 H           2.0524    0.2807    5.3912 H       1  LIG1        0.0235
     55 H           1.1520    1.4947    5.8065 H       1  LIG1        0.0235
     56 C           3.0676    3.3715    6.1695 C.3     1  LIG1       -0.0586
     57 H           3.7130    3.9748    5.7948 H       1  LIG1        0.0235
     58 H           3.2866    3.1995    7.0879 H       1  LIG1        0.0235
     59 H           2.1947    3.7647    6.1171 H       1  LIG1        0.0235
     60 C           4.9925    1.9262    0.6536 C.3     1  LIG1       -0.0197
     61 H           5.7174    1.5245    1.1765 H       1  LIG1        0.0344
     62 C           5.5189    3.2153    0.0380 C.3     1  LIG1       -0.0586
     63 H           4.8458    3.5974   -0.5306 H       1  LIG1        0.0235
     64 H           6.3050    3.0248   -0.4782 H       1  LIG1        0.0235
     65 H           5.7380    3.8372    0.7363 H       1  LIG1        0.0235
     66 C           4.5812    0.9230   -0.4192 C.3     1  LIG1       -0.0586
     67 H           4.2773    0.1134   -0.0013 H       1  LIG1        0.0235
     68 H           5.3341    0.7288   -0.9813 H       1  LIG1        0.0235
     69 H           3.8723    1.2939   -0.9499 H       1  LIG1        0.0235
     70 N           7.2671    1.5626    4.2190 N.pl3   1  LIG1       -0.2751
     71 N           5.2172    1.5600    3.4966 N.pl3   1  LIG1       -0.2751
     72 H           6.2154    3.2943    3.9697 H       1  LIG1        0.0753
     73 CL          5.9513    5.5969    3.8940 Cl      2  LIG2        0.0000
     74 C           0.7424   -2.2198    1.6835 C.3     2  LIG2        0.0970
     75 H           0.4911   -2.4577    0.7782 H       2  LIG2        0.0597
     76 H           0.0066   -2.4540    2.2731 H       2  LIG2        0.0597
     77 CL          1.0540   -0.4862    1.7805 Cl      2  LIG2       -0.1083
     78 CL          2.1971   -3.1177    2.1583 Cl      2  LIG2       -0.1083
@<TRIPOS>BOND
     1    68    66    1
     2    69    66    1
     3    63    62    1
     4    64    62    1
     5    66    67    1
     6    66    60    1
     7    62    60    1
     8    62    65    1
     9    48    47    1
    10    60    61    1
    11    60    49    1
    12    35    33    1
    13    75    74    1
    14    38    37    1
    15    47    49   ar
    16    47    45   ar
    17    49    41   ar
    18    33    36    1
    19    33    34    1
    20    33    31    1
    21    46    45    1
    22    74    77    1
    23    74    78    1
    24    74    76    1
    25    37    40    1
    26    37    39    1
    27    37    31    1
    28    45    43   ar
    29    32    31    1
    30    31    20    1
    31    10     9    1
    32    41    71    1
    33    41    42   ar
    34     8     7    1
    35     9     7   ar
    36     9    11   ar
    37     7     5   ar
    38    43    42   ar
    39    43    44    1
    40    71    11    1
    41    71     1    1
    42    11     2   ar
    43     5     6    1
    44     5     3   ar
    45    19    18    1
    46    20    18   ar
    47    20    12   ar
    48    42    50    1
    49     1    72    1
    50     1    70    1
    51     2     3   ar
    52     2    70    1
    53     3     4    1
    54    70    12    1
    55    18    16   ar
    56    12    13   ar
    57    50    51    1
    58    50    52    1
    59    50    56    1
    60    54    52    1
    61    16    17    1
    62    16    14   ar
    63    57    56    1
    64    55    52    1
    65    52    53    1
    66    59    56    1
    67    13    14   ar
    68    13    21    1
    69    56    58    1
    70    22    21    1
    71    14    15    1
    72    29    27    1
    73    21    27    1
    74    21    23    1
    75    27    28    1
    76    27    30    1
    77    24    23    1
    78    23    25    1
    79    23    26    1
