@<TRIPOS>MOLECULE
2,2-dinitropropyl nitrocarbamate
 22 21 0 0 0
SMALL
GASTEIGER

@<TRIPOS>ATOM
      1 H           5.3174    5.1617    2.4891 H       1  LIG1        0.0276
      2 H           5.3236    4.5736    3.9451 H       1  LIG1        0.0276
      3 H           4.0029    5.2368    3.2935 H       1  LIG1        0.0276
      4 H           3.9571    4.0293    0.6797 H       1  LIG1        0.0746
      5 H           3.3591    2.6153    0.9300 H       1  LIG1        0.0746
      6 H           0.1956    4.7550    2.2707 H       1  LIG1        0.1852
      7 C           4.7985    4.7037    3.1382 C.3     1  LIG1       -0.0062
      8 C           4.3962    3.3829    2.5502 C.3     1  LIG1        0.2977
      9 C           3.5415    3.4693    1.2996 C.3     1  LIG1        0.1486
     10 C           1.4129    4.2889    0.8042 C.2     1  LIG1        0.4235
     11 N           5.6545    2.5944    2.2249 N.pl3   1  LIG1        0.0586
     12 N           3.6488    2.5038    3.5596 N.pl3   1  LIG1        0.0586
     13 N           0.2611    4.7031    1.4393 N.am    1  LIG1       -0.1220
     14 N          -0.9029    5.0431    0.7765 N.pl3   1  LIG1        0.1276
     15 O           6.0500    2.6358    1.0830 O.2     1  LIG1       -0.1290
     16 O           6.2064    2.0290    3.1448 O.2     1  LIG1       -0.1290
     17 O           3.3549    1.3892    3.1766 O.2     1  LIG1       -0.1290
     18 O           3.3770    2.9762    4.6447 O.2     1  LIG1       -0.1290
     19 O           2.3119    4.0547    1.7662 O.3     1  LIG1       -0.4444
     20 O           1.6003    4.1499   -0.3662 O.2     1  LIG1       -0.2245
     21 O          -0.9190    5.0297   -0.4333 O.2     1  LIG1       -0.1094
     22 O          -1.8182    5.3356    1.5057 O.2     1  LIG1       -0.1094
@<TRIPOS>BOND
     1    21    14    2
     2    20    10    2
     3     4     9    1
     4    14    13    1
     5    14    22    2
     6    10    13   am
     7    10    19    1
     8     5     9    1
     9    15    11    2
    10     9    19    1
    11     9     8    1
    12    13     6    1
    13    11     8    1
    14    11    16    2
    15     1     7    1
    16     8     7    1
    17     8    12    1
    18     7     3    1
    19     7     2    1
    20    17    12    2
    21    12    18    2
