@<TRIPOS>MOLECULE
?
 27 28 0 0 0
SMALL
GASTEIGER

@<TRIPOS>ATOM
      1 C           2.5673    2.3177    1.5749 C.ar    1  LIG1        0.1045
      2 C           3.8516    1.8992    0.9879 C.ar    1  LIG1        0.1520
      3 C           3.3919    1.9472   -1.3893 C.3     1  LIG1        0.0264
      4 H           2.4676    2.1690   -1.1956 H       1  LIG1        0.0477
      5 H           3.4548    0.9858   -1.5016 H       1  LIG1        0.0477
      6 C           3.8210    2.6340   -2.6652 C.3     1  LIG1        0.0148
      7 H           3.2385    2.3649   -3.3923 H       1  LIG1        0.0442
      8 H           3.7474    3.5954   -2.5590 H       1  LIG1        0.0442
      9 C           6.0514    2.7520   -1.8847 C.3     1  LIG1        0.0148
     10 H           5.9699    3.7157   -1.8116 H       1  LIG1        0.0442
     11 H           6.9781    2.5443   -2.0813 H       1  LIG1        0.0442
     12 C           5.6680    2.1171   -0.5660 C.3     1  LIG1        0.0264
     13 H           5.8225    1.1604   -0.6106 H       1  LIG1        0.0477
     14 H           6.2242    2.4798    0.1409 H       1  LIG1        0.0477
     15 C           5.6705    2.8708   -4.2450 C.3     1  LIG1        0.0124
     16 H           6.6227    2.7111   -4.3451 H       1  LIG1        0.0438
     17 H           5.5275    3.8298   -4.2216 H       1  LIG1        0.0438
     18 C           4.9359    2.2815   -5.4280 C.3     1  LIG1        0.0353
     19 H           3.9829    2.4318   -5.3260 H       1  LIG1        0.0442
     20 H           5.0877    1.3241   -5.4615 H       1  LIG1        0.0442
     21 N           4.6533    1.1384    1.6897 N.ar    1  LIG1       -0.1868
     22 N           4.2520    2.3728   -0.2568 N.pl3   1  LIG1       -0.3109
     23 N           5.2053    2.2776   -2.9848 N.3     1  LIG1       -0.2982
     24 S           4.1385    0.6189    3.1615 S.2     1  LIG1        0.0520
     25 S           2.3264    1.6023    3.1280 S.2     1  LIG1       -0.0219
     26 S           1.4661    3.3920    0.9583 S.2     1  LIG1       -0.0401
     27 CL          5.5028    3.0342   -6.9525 Cl      1  LIG1       -0.1241
@<TRIPOS>BOND
     1    27    18    1
     2    20    18    1
     3    18    19    1
     4    18    15    1
     5    16    15    1
     6    15    17    1
     7    15    23    1
     8     7     6    1
     9    23     6    1
    10    23     9    1
    11     6     8    1
    12     6     3    1
    13    11     9    1
    14     9    10    1
    15     9    12    1
    16     5     3    1
    17     3     4    1
    18     3    22    1
    19    13    12    1
    20    12    22    1
    21    12    14    1
    22    22     2    1
    23    26     1    2
    24     2     1   ar
    25     2    21   ar
    26     1    25   ar
    27    21    24   ar
    28    25    24   ar
