@<TRIPOS>MOLECULE
C24 H27 N3 O6, H2 O
 61 65 0 0 0
SMALL
GASTEIGER

@<TRIPOS>ATOM
      1 O           6.8330    0.1543   19.3003 O.2     1  LIG1       -0.2748
      2 O           5.4703   -0.6909   15.0477 O.2     1  LIG1       -0.2749
      3 O           4.6148    3.9699   13.7506 O.2     1  LIG1       -0.2748
      4 O           4.0145    7.4452   16.5897 O.2     1  LIG1       -0.2748
      5 O          -0.1699    4.8182   20.1817 O.2     1  LIG1       -0.2749
      6 O           3.7524    3.2601   21.8356 O.2     1  LIG1       -0.2749
      7 O           5.6009    4.9306   23.3435 O.3     2  HOH2        0.0000
      8 N           6.3280   -0.5323   17.1653 N.am    1  LIG1       -0.2448
      9 N           4.6025    5.7968   15.1279 N.am    1  LIG1       -0.2448
     10 N           1.6833    3.7662   21.0094 N.am    1  LIG1       -0.2448
     11 C           4.9576    1.1350   18.0789 C.3     1  LIG1        0.0535
     12 C           4.3542    0.6709   16.7428 C.3     1  LIG1        0.0483
     13 C           4.0037    1.7975   15.7760 C.3     1  LIG1       -0.0339
     14 C           3.3742    2.9588   16.5214 C.3     1  LIG1       -0.0068
     15 C           2.9723    4.1505   15.5754 C.3     1  LIG1        0.0543
     16 C           2.6287    5.4240   16.3718 C.3     1  LIG1        0.0542
     17 C           2.4611    5.1658   17.8567 C.3     1  LIG1       -0.0071
     18 C           2.0099    6.3312   18.7190 C.3     1  LIG1       -0.0339
     19 C           2.0092    5.9480   20.1863 C.3     1  LIG1        0.0481
     20 C           3.3473    5.3694   20.6785 C.3     1  LIG1        0.0509
     21 C           4.3765    5.2015   19.5450 C.3     1  LIG1       -0.0193
     22 C           3.7363    4.5253   18.3685 C.2     1  LIG1       -0.0652
     23 C           4.1759    3.4333   17.7087 C.2     1  LIG1       -0.0626
     24 C           5.3896    2.6259   18.1213 C.3     1  LIG1       -0.0104
     25 C           6.6463    2.9514   17.3127 C.3     1  LIG1       -0.0580
     26 C           6.1443    0.2152   18.3068 C.2     1  LIG1        0.2259
     27 C           7.4295   -1.4678   17.0111 C.3     1  LIG1        0.0108
     28 C           5.4049   -0.2740   16.1709 C.2     1  LIG1        0.2254
     29 C           4.1413    4.5463   14.6960 C.2     1  LIG1        0.2260
     30 C           5.7916    6.4456   14.5671 C.3     1  LIG1        0.0108
     31 C           3.7724    6.3648   16.0836 C.2     1  LIG1        0.2260
     32 C           1.0115    4.8371   20.4284 C.2     1  LIG1        0.2254
     33 C           1.0077    2.5430   21.4438 C.3     1  LIG1        0.0108
     34 C           3.0115    4.0129   21.2575 C.2     1  LIG1        0.2257
     35 H           4.3135    0.9817   18.8178 H       1  LIG1        0.0407
     36 H           3.5372    0.1512   16.9343 H       1  LIG1        0.0402
     37 H           4.8139    2.1093   15.3410 H       1  LIG1        0.0279
     38 H           3.3996    1.4794   15.0821 H       1  LIG1        0.0279
     39 H           2.5218    2.6133   16.8831 H       1  LIG1        0.0353
     40 H           2.2182    3.9048   14.9967 H       1  LIG1        0.0408
     41 H           1.8055    5.7989   16.0124 H       1  LIG1        0.0408
     42 H           1.7555    4.4990   17.9500 H       1  LIG1        0.0353
     43 H           2.6179    7.0798   18.5588 H       1  LIG1        0.0279
     44 H           1.0984    6.5874   18.4650 H       1  LIG1        0.0279
     45 H           1.7532    6.7123   20.7212 H       1  LIG1        0.0402
     46 H           3.7232    5.9123   21.4125 H       1  LIG1        0.0405
     47 H           5.1213    4.6796   19.8619 H       1  LIG1        0.0318
     48 H           4.6863    6.0687   19.2588 H       1  LIG1        0.0318
     49 H           5.5756    2.8370   19.0795 H       1  LIG1        0.0351
     50 H           6.8461    3.8838   17.4208 H       1  LIG1        0.0236
     51 H           7.3918    2.4558   17.6541 H       1  LIG1        0.0236
     52 H           6.5079    2.7719   16.3709 H       1  LIG1        0.0236
     53 H           7.5348   -1.6925   16.0637 H       1  LIG1        0.0433
     54 H           7.2465   -2.2605   17.5346 H       1  LIG1        0.0433
     55 H           8.2419   -1.0626   17.3411 H       1  LIG1        0.0433
     56 H           5.7016    7.3885   14.6724 H       1  LIG1        0.0433
     57 H           6.5778    6.1443   15.0223 H       1  LIG1        0.0433
     58 H           5.8469    6.2399   13.6168 H       1  LIG1        0.0433
     59 H           1.6418    1.8311   21.4950 H       1  LIG1        0.0433
     60 H           0.6233    2.6847   22.3287 H       1  LIG1        0.0433
     61 H           0.3074    2.3088   20.8037 H       1  LIG1        0.0433
@<TRIPOS>BOND
     1    58    30    1
     2     3    29    2
     3    30    56    1
     4    30    57    1
     5    30     9    1
     6    29     9   am
     7    29    15    1
     8    40    15    1
     9     2    28    2
    10    38    13    1
    11     9    31   am
    12    37    13    1
    13    15    16    1
    14    15    14    1
    15    13    14    1
    16    13    12    1
    17    41    16    1
    18    53    27    1
    19    31    16    1
    20    31     4    2
    21    28    12    1
    22    28     8   am
    23    52    25    1
    24    16    17    1
    25    14    39    1
    26    14    23    1
    27    12    36    1
    28    12    11    1
    29    27     8    1
    30    27    55    1
    31    27    54    1
    32     8    26   am
    33    25    50    1
    34    25    51    1
    35    25    24    1
    36    23    24    1
    37    23    22    2
    38    17    42    1
    39    17    22    1
    40    17    18    1
    41    11    24    1
    42    11    26    1
    43    11    35    1
    44    24    49    1
    45    26     1    2
    46    22    21    1
    47    44    18    1
    48    43    18    1
    49    18    19    1
    50    48    21    1
    51    21    47    1
    52    21    20    1
    53     5    32    2
    54    19    32    1
    55    19    20    1
    56    19    45    1
    57    32    10   am
    58    20    34    1
    59    20    46    1
    60    61    33    1
    61    10    34   am
    62    10    33    1
    63    34     6    2
    64    33    59    1
    65    33    60    1
