@<TRIPOS>MOLECULE
?
 29 31 0 0 0
SMALL
GASTEIGER

@<TRIPOS>ATOM
      1 S           8.8757    3.2782   10.4226 S.2     1  LIG1       -0.0111
      2 CL          6.2264   -2.5854   12.6722 Cl      1  LIG1       -0.0835
      3 C           6.3698   -0.8613   12.5583 C.ar    1  LIG1        0.0411
      4 C           6.6128    1.8634   12.3011 C.ar    1  LIG1        0.0505
      5 C           5.2869   -0.1253   12.1131 C.ar    1  LIG1       -0.0414
      6 H           4.4805   -0.5432   11.9126 H       1  LIG1        0.0633
      7 C           5.4216    1.2427   11.9692 C.ar    1  LIG1       -0.0363
      8 H           4.7093    1.7481   11.6489 H       1  LIG1        0.0639
      9 C           7.6857    1.1118   12.7602 C.ar    1  LIG1       -0.0363
     10 H           8.4836    1.5320   12.9887 H       1  LIG1        0.0639
     11 C           7.5703   -0.2483   12.8771 C.ar    1  LIG1       -0.0414
     12 H           8.2930   -0.7571   13.1680 H       1  LIG1        0.0633
     13 C           7.6675    3.9275   11.3851 C.ar    1  LIG1        0.1804
     14 C           4.8446    4.0239   13.7297 C.ar    1  LIG1        0.0196
     15 N           6.3163    5.4417   12.4209 N.ar    1  LIG1       -0.1530
     16 C           2.7726    3.6836   15.5164 C.ar    1  LIG1        0.0410
     17 C           2.7310    4.7400   14.6344 C.ar    1  LIG1       -0.0427
     18 H           2.0127    5.3309   14.6386 H       1  LIG1        0.0632
     19 C           3.7892    4.9107   13.7251 C.ar    1  LIG1       -0.0497
     20 H           3.7777    5.6202   13.1237 H       1  LIG1        0.0625
     21 C           3.8087    2.8123   15.5354 C.ar    1  LIG1       -0.0427
     22 H           3.8169    2.1084   16.1430 H       1  LIG1        0.0632
     23 C           4.8465    2.9719   14.6519 C.ar    1  LIG1       -0.0497
     24 H           5.5597    2.3744   14.6661 H       1  LIG1        0.0625
     25 C           5.9468    4.2445   12.7861 C.ar    1  LIG1        0.1671
     26 N           7.3609    5.2211   11.5575 N.ar    1  LIG1       -0.2537
     27 H           7.7818    5.8574   11.1615 H       1  LIG1        0.1911
     28 CL          1.4404    3.4686   16.6169 Cl      1  LIG1       -0.0835
     29 N           6.7446    3.2790   12.1840 N.ar    1  LIG1       -0.2714
@<TRIPOS>BOND
     1     1    13    2
     2    27    26    1
     3    13    26   ar
     4    13    29   ar
     5    26    15   ar
     6     8     7    1
     7     6     5    1
     8     7     5   ar
     9     7     4   ar
    10     5     3   ar
    11    29     4    1
    12    29    25   ar
    13     4     9   ar
    14    15    25   ar
    15     3     2    1
    16     3    11   ar
    17     9    11   ar
    18     9    10    1
    19    25    14    1
    20    11    12    1
    21    20    19    1
    22    19    14   ar
    23    19    17   ar
    24    14    23   ar
    25    17    18    1
    26    17    16   ar
    27    23    24    1
    28    23    21   ar
    29    16    21   ar
    30    16    28    1
    31    21    22    1
