@<TRIPOS>MOLECULE
?
 49 50 0 0 0
SMALL
GASTEIGER

@<TRIPOS>ATOM
      1 C           7.7626    0.0992    3.2670 C.ar    1  LIG1       -0.0573
      2 H           8.4616   -0.2778    3.7889 H       1  LIG1        0.0621
      3 C           7.7998   -0.0072    1.8842 C.ar    1  LIG1       -0.0615
      4 H           8.5187   -0.4674    1.4679 H       1  LIG1        0.0618
      5 C           6.8112    0.5435    1.1148 C.ar    1  LIG1       -0.0617
      6 H           6.8539    0.4854    0.1675 H       1  LIG1        0.0618
      7 C           5.7516    1.1835    1.7254 C.ar    1  LIG1       -0.0615
      8 H           5.0543    1.5541    1.1979 H       1  LIG1        0.0618
      9 C           5.7023    1.2876    3.1054 C.ar    1  LIG1       -0.0573
     10 H           4.9689    1.7306    3.5170 H       1  LIG1        0.0621
     11 C           6.7097    0.7539    3.8955 C.ar    1  LIG1       -0.0336
     12 C           6.7263    0.9449    5.3900 C.3     1  LIG1        0.0218
     13 H           7.4131    0.3497    5.7809 H       1  LIG1        0.0474
     14 H           6.9876    1.8777    5.5898 H       1  LIG1        0.0474
     15 N           5.4413    0.6671    6.0272 N.3     1  LIG1       -0.3051
     16 H           5.2424   -0.1994    5.9484 H       1  LIG1        0.1228
     17 C           5.4743    0.9885    7.4665 C.3     1  LIG1        0.0366
     18 H           6.3036    0.5932    7.8615 H       1  LIG1        0.0513
     19 C           5.5153    2.4902    7.6625 C.ar    1  LIG1       -0.0302
     20 C           4.5451    3.3086    7.0941 C.ar    1  LIG1       -0.0571
     21 H           3.8555    2.9252    6.5651 H       1  LIG1        0.0621
     22 C           4.5756    4.6784    7.2943 C.ar    1  LIG1       -0.0615
     23 H           3.9071    5.2278    6.9020 H       1  LIG1        0.0618
     24 C           5.5708    5.2493    8.0582 C.ar    1  LIG1       -0.0617
     25 H           5.5913    6.1903    8.1886 H       1  LIG1        0.0618
     26 C           6.5355    4.4514    8.6319 C.ar    1  LIG1       -0.0615
     27 H           7.2179    4.8421    9.1639 H       1  LIG1        0.0618
     28 C           6.5128    3.0759    8.4337 C.ar    1  LIG1       -0.0571
     29 H           7.1846    2.5314    8.8290 H       1  LIG1        0.0621
     30 C           4.2583    0.3643    8.1628 C.3     1  LIG1       -0.0151
     31 H           4.2494    0.6488    9.1107 H       1  LIG1        0.0326
     32 H           3.4322    0.7060    7.7374 H       1  LIG1        0.0326
     33 C           4.2538   -1.1363    8.1021 C.2     1  LIG1       -0.0859
     34 H           5.0288   -1.5852    8.4191 H       1  LIG1        0.0570
     35 C           3.2647   -1.8867    7.6468 C.2     1  LIG1       -0.0850
     36 H           2.4881   -1.4332    7.3433 H       1  LIG1        0.0572
     37 C           3.2492   -3.3851    7.5628 C.3     1  LIG1       -0.0260
     38 H           4.1473   -3.7227    7.8418 H       1  LIG1        0.0340
     39 C           2.2024   -3.9698    8.5113 C.3     1  LIG1       -0.0590
     40 H           2.3588   -3.6328    9.4181 H       1  LIG1        0.0235
     41 H           2.2695   -4.9483    8.5098 H       1  LIG1        0.0235
     42 H           1.3070   -3.7031    8.2142 H       1  LIG1        0.0235
     43 C           2.9879   -3.8479    6.1304 C.3     1  LIG1       -0.0499
     44 H           2.9202   -4.8356    6.1198 H       1  LIG1        0.0268
     45 H           2.1180   -3.4825    5.8301 H       1  LIG1        0.0268
     46 C           4.0663   -3.4186    5.1512 C.3     1  LIG1       -0.0648
     47 H           4.1168   -2.4398    5.1287 H       1  LIG1        0.0230
     48 H           3.8477   -3.7554    4.2559 H       1  LIG1        0.0230
     49 H           4.9301   -3.7848    5.4361 H       1  LIG1        0.0230
@<TRIPOS>BOND
     1     6     5    1
     2     5     7   ar
     3     5     3   ar
     4     8     7    1
     5     4     3    1
     6     7     9   ar
     7     3     1   ar
     8     9    10    1
     9     9    11   ar
    10     1     2    1
    11     1    11   ar
    12    11    12    1
    13    48    46    1
    14    47    46    1
    15    46    49    1
    16    46    43    1
    17    12    14    1
    18    12    13    1
    19    12    15    1
    20    45    43    1
    21    16    15    1
    22    15    17    1
    23    44    43    1
    24    43    37    1
    25    21    20    1
    26    23    22    1
    27    20    22   ar
    28    20    19   ar
    29    22    24   ar
    30    36    35    1
    31    17    19    1
    32    17    18    1
    33    17    30    1
    34    37    35    1
    35    37    38    1
    36    37    39    1
    37    35    33    2
    38    19    28   ar
    39    32    30    1
    40    24    25    1
    41    24    26   ar
    42    33    30    1
    43    33    34    1
    44    30    31    1
    45    42    39    1
    46    28    26   ar
    47    28    29    1
    48    41    39    1
    49    39    40    1
    50    26    27    1
