@<TRIPOS>MOLECULE
?
 33 36 0 0 0
SMALL
GASTEIGER

@<TRIPOS>ATOM
      1 C           0.0267    3.7980    0.7833 C.ar    1  LIG1        0.0029
      2 C          -1.0219    4.2187    1.5635 C.ar    1  LIG1        0.1322
      3 O          -1.1435    3.9335    2.9268 O.3     1  LIG1       -0.4555
      4 C          -0.0016    4.1790   -0.5982 C.ar    1  LIG1       -0.0112
      5 C          -1.0994    4.9195   -1.1262 C.ar    1  LIG1       -0.0174
      6 C           1.0482    3.8485   -1.4946 C.ar    1  LIG1       -0.0537
      7 H           1.7763    3.3609   -1.1833 H       1  LIG1        0.0624
      8 C           1.0100    4.2312   -2.7988 C.ar    1  LIG1       -0.0612
      9 H           1.7155    4.0103   -3.3636 H       1  LIG1        0.0618
     10 C          -0.0719    4.9485   -3.3016 C.ar    1  LIG1       -0.0612
     11 H          -0.0881    5.1968   -4.1980 H       1  LIG1        0.0618
     12 C          -2.1469    5.2863   -0.2614 C.ar    1  LIG1       -0.0505
     13 H          -2.8770    5.7570   -0.5916 H       1  LIG1        0.0625
     14 C           1.1907    2.9529    1.2601 C.3     1  LIG1       -0.0195
     15 C          -1.0987    5.2849   -2.4896 C.ar    1  LIG1       -0.0540
     16 H          -1.8172    5.7646   -2.8356 H       1  LIG1        0.0624
     17 C           1.2108    2.5151    2.7102 C.3     1  LIG1       -0.0201
     18 H           0.4762    1.9006    2.8615 H       1  LIG1        0.0317
     19 H           2.0368    2.0357    2.8804 H       1  LIG1        0.0317
     20 C          -0.0946    4.3391    3.7492 C.ar    1  LIG1        0.1316
     21 C          -2.0964    4.9581    1.0463 C.ar    1  LIG1       -0.0185
     22 H          -2.7831    5.2257    1.6123 H       1  LIG1        0.0654
     23 C           1.1007    3.6516    3.6799 C.ar    1  LIG1       -0.0048
     24 C          -0.3103    5.3581    4.6468 C.ar    1  LIG1       -0.0191
     25 H          -1.1311    5.7944    4.6812 H       1  LIG1        0.0654
     26 C           1.9331    5.0829    5.4284 C.ar    1  LIG1       -0.0613
     27 H           2.6270    5.3439    5.9894 H       1  LIG1        0.0618
     28 C           2.1268    4.0516    4.5266 C.ar    1  LIG1       -0.0551
     29 H           2.9509    3.6227    4.4856 H       1  LIG1        0.0621
     30 C           0.7191    5.7213    5.4968 C.ar    1  LIG1       -0.0583
     31 H           0.5882    6.4013    6.1167 H       1  LIG1        0.0619
     32 H           1.9953    3.4459    1.0843 H       1  LIG1        0.0318
     33 H           1.2633    2.1428    0.7048 H       1  LIG1        0.0318
@<TRIPOS>BOND
     1    11    10    1
     2     9     8    1
     3    10     8   ar
     4    10    15   ar
     5    16    15    1
     6     8     6   ar
     7    15     5   ar
     8     6     7    1
     9     6     4   ar
    10     5     4   ar
    11     5    12   ar
    12     4     1   ar
    13    13    12    1
    14    12    21   ar
    15    33    14    1
    16     1    14    1
    17     1     2   ar
    18    21     2   ar
    19    21    22    1
    20    32    14    1
    21    14    17    1
    22     2     3    1
    23    17    18    1
    24    17    19    1
    25    17    23    1
    26     3    20    1
    27    23    20   ar
    28    23    28   ar
    29    20    24   ar
    30    29    28    1
    31    28    26   ar
    32    24    25    1
    33    24    30   ar
    34    26    30   ar
    35    26    27    1
    36    30    31    1
