@<TRIPOS>MOLECULE
?
 66 69 0 0 0
SMALL
GASTEIGER

@<TRIPOS>ATOM
      1 CL          0.6660   -0.3736    5.4485 Cl      1  LIG1       -0.1219
      2 O           3.9731    5.2744   11.9656 O.2     1  LIG1       -0.2703
      3 O           3.8527    1.5346    9.2282 O.3     1  LIG1       -0.4913
      4 O           3.9419    1.5200    6.5527 O.3     1  LIG1       -0.4840
      5 O           4.5946    3.7049    5.1749 O.3     1  LIG1       -0.4913
      6 O           4.1967   10.6428   10.3022 O.2     1  LIG1       -0.2730
      7 N           3.8917    7.5449   12.2084 N.am    1  LIG1       -0.2750
      8 N           2.4776    9.1709   10.4269 N.am    1  LIG1       -0.3085
      9 H           2.1742    8.5342   10.7945 H       1  LIG1        0.1493
     10 C           4.2840    6.3981   11.5867 C.2     1  LIG1        0.2441
     11 C           5.1609    6.8085   10.4457 C.2     1  LIG1        0.0179
     12 C           5.6995    8.1656   10.8397 C.3     1  LIG1        0.0117
     13 H           5.8763    8.7134   10.0589 H       1  LIG1        0.0344
     14 H           6.5121    8.0830   11.3619 H       1  LIG1        0.0344
     15 C           4.5503    8.7510   11.6841 C.3     1  LIG1        0.1435
     16 C           4.9068    9.4953   12.9436 C.ar    1  LIG1       -0.0101
     17 C           5.6537   10.6627   13.0751 C.ar    1  LIG1       -0.0557
     18 H           6.0017   11.0957   12.3284 H       1  LIG1        0.0621
     19 C           5.8608   11.1571   14.3435 C.ar    1  LIG1       -0.0614
     20 H           6.3707   11.9265   14.4584 H       1  LIG1        0.0618
     21 C           5.3224   10.5267   15.4463 C.ar    1  LIG1       -0.0614
     22 H           5.4735   10.8776   16.2952 H       1  LIG1        0.0618
     23 C           4.5642    9.3863   15.3114 C.ar    1  LIG1       -0.0567
     24 H           4.1972    8.9703   16.0596 H       1  LIG1        0.0621
     25 C           4.3567    8.8681   14.0451 C.ar    1  LIG1       -0.0244
     26 C           3.5722    7.6426   13.6377 C.3     1  LIG1        0.0417
     27 H           3.8675    6.8561   14.1218 H       1  LIG1        0.0514
     28 H           2.6210    7.7672   13.7805 H       1  LIG1        0.0514
     29 C           5.3805    6.2566    9.2496 C.2     1  LIG1       -0.0462
     30 H           5.9226    6.7759    8.7005 H       1  LIG1        0.0628
     31 C           4.9450    4.9991    8.6130 C.ar    1  LIG1       -0.0175
     32 C           4.5590    3.8671    9.3213 C.ar    1  LIG1       -0.0089
     33 H           4.5347    3.8824   10.2512 H       1  LIG1        0.0661
     34 C           4.2096    2.7136    8.6313 C.ar    1  LIG1        0.1657
     35 C           4.2353    2.6848    7.2477 C.ar    1  LIG1        0.2038
     36 C           4.6136    3.8218    6.5342 C.ar    1  LIG1        0.1657
     37 C           4.9776    4.9702    7.2239 C.ar    1  LIG1       -0.0089
     38 H           5.2452    5.7258    6.7532 H       1  LIG1        0.0661
     39 C           3.6889    9.6213   10.7455 C.2     1  LIG1        0.2420
     40 C           1.6381    9.7271    9.3432 C.3     1  LIG1        0.0262
     41 C           1.3174   11.1834    9.5966 C.3     1  LIG1       -0.0442
     42 H           0.7704   11.5192    8.8832 H       1  LIG1        0.0250
     43 H           2.1333   11.6872    9.6381 H       1  LIG1        0.0250
     44 H           0.8458   11.2673   10.4291 H       1  LIG1        0.0250
     45 C           2.3809    9.5718    8.0233 C.3     1  LIG1       -0.0442
     46 H           1.8358    9.9064    7.3085 H       1  LIG1        0.0250
     47 H           2.5739    8.6432    7.8711 H       1  LIG1        0.0250
     48 H           3.2029   10.0668    8.0586 H       1  LIG1        0.0250
     49 C           0.3912    8.8850    9.2876 C.3     1  LIG1       -0.0442
     50 H          -0.1614    9.1795    8.5611 H       1  LIG1        0.0250
     51 H          -0.0918    8.9740   10.1118 H       1  LIG1        0.0250
     52 H           0.6320    7.9652    9.1549 H       1  LIG1        0.0250
     53 C           4.7845    4.8887    4.4236 C.3     1  LIG1        0.0790
     54 H           4.7540    4.6819    3.4860 H       1  LIG1        0.0660
     55 H           5.6383    5.2709    4.6400 H       1  LIG1        0.0660
     56 H           4.0907    5.5165    4.6352 H       1  LIG1        0.0660
     57 C           3.6652    1.5364   10.6344 C.3     1  LIG1        0.0790
     58 H           3.4649    0.6454   10.9316 H       1  LIG1        0.0660
     59 H           2.9378    2.1204   10.8594 H       1  LIG1        0.0660
     60 H           4.4666    1.8434   11.0638 H       1  LIG1        0.0660
     61 C           2.5354    1.2419    6.4849 C.3     1  LIG1        0.1033
     62 H           2.0593    1.9976    6.1041 H       1  LIG1        0.0708
     63 H           2.1817    1.0677    7.3711 H       1  LIG1        0.0708
     64 C           2.3809    0.0501    5.6249 C.3     1  LIG1        0.0567
     65 H           2.8602   -0.6968    6.0175 H       1  LIG1        0.0463
     66 H           2.7625    0.2281    4.7506 H       1  LIG1        0.0463
@<TRIPOS>BOND
     1    54    53    1
     2    53    56    1
     3    53    55    1
     4    53     5    1
     5    66    64    1
     6     5    36    1
     7     1    64    1
     8    64    65    1
     9    64    61    1
    10    62    61    1
    11    61     4    1
    12    61    63    1
    13    36    37   ar
    14    36    35   ar
    15     4    35    1
    16    38    37    1
    17    37    31   ar
    18    35    34   ar
    19    46    45    1
    20    47    45    1
    21    45    48    1
    22    45    40    1
    23    50    49    1
    24    31    29    1
    25    31    32   ar
    26    34     3    1
    27    34    32   ar
    28    30    29    1
    29    42    41    1
    30    52    49    1
    31     3    57    1
    32    29    11    2
    33    49    40    1
    34    49    51    1
    35    32    33    1
    36    40    41    1
    37    40     8    1
    38    41    43    1
    39    41    44    1
    40    13    12    1
    41     6    39    2
    42     8    39   am
    43     8     9    1
    44    11    12    1
    45    11    10    1
    46    57    59    1
    47    57    58    1
    48    57    60    1
    49    39    15    1
    50    12    14    1
    51    12    15    1
    52    10     2    2
    53    10     7   am
    54    15     7    1
    55    15    16    1
    56     7    26    1
    57    18    17    1
    58    16    17   ar
    59    16    25   ar
    60    17    19   ar
    61    26    28    1
    62    26    25    1
    63    26    27    1
    64    25    23   ar
    65    19    20    1
    66    19    21   ar
    67    23    21   ar
    68    23    24    1
    69    21    22    1
