@<TRIPOS>MOLECULE
?
 50 53 0 0 0
SMALL
GASTEIGER

@<TRIPOS>ATOM
      1 C           4.9146    1.0491   11.9000 C.ar    1  LIG1        0.1088
      2 C           5.5396    1.2716   13.1092 C.ar    1  LIG1       -0.0348
      3 H           5.9874    2.0917   13.2788 H       1  LIG1        0.0637
      4 C           5.5020    0.2795   14.0674 C.ar    1  LIG1       -0.0570
      5 H           5.9434    0.4185   14.8958 H       1  LIG1        0.0621
      6 C           4.8371   -0.9085   13.8501 C.ar    1  LIG1       -0.0503
      7 C           4.7875   -1.9849   14.9012 C.3     1  LIG1       -0.0397
      8 H           4.9798   -2.8532   14.4903 H       1  LIG1        0.0278
      9 H           3.8951   -2.0050   15.3068 H       1  LIG1        0.0278
     10 H           5.4559   -1.7961   15.5940 H       1  LIG1        0.0278
     11 C           4.1975   -1.1029   12.6347 C.ar    1  LIG1       -0.0570
     12 H           3.7269   -1.9126   12.4766 H       1  LIG1        0.0621
     13 C           4.2368   -0.1341   11.6516 C.ar    1  LIG1       -0.0348
     14 H           3.8049   -0.2763   10.8165 H       1  LIG1        0.0637
     15 C           3.1354    1.9849    8.7326 C.3     1  LIG1        0.0591
     16 H           3.5221    2.5640    8.0294 H       1  LIG1        0.0529
     17 H           3.5014    1.0732    8.6163 H       1  LIG1        0.0529
     18 C           1.6604    1.9479    8.5859 C.2     1  LIG1       -0.0504
     19 C           1.0257    0.9238    8.0617 C.2     1  LIG1       -0.0829
     20 H           1.5439    0.1848    7.7674 H       1  LIG1        0.0572
     21 C          -0.4615    0.8442    7.8984 C.3     1  LIG1       -0.0344
     22 H          -0.7710   -0.0635    8.1425 H       1  LIG1        0.0307
     23 H          -0.6955    1.0025    6.9490 H       1  LIG1        0.0307
     24 C          -1.1656    1.8692    8.7688 C.3     1  LIG1       -0.0490
     25 H          -2.1133    1.9423    8.4924 H       1  LIG1        0.0268
     26 H          -1.1423    1.5720    9.7128 H       1  LIG1        0.0268
     27 C          -0.4952    3.2243    8.6468 C.3     1  LIG1       -0.0452
     28 H          -0.9720    3.8702    9.2282 H       1  LIG1        0.0271
     29 H          -0.5787    3.5408    7.7135 H       1  LIG1        0.0271
     30 C           0.9747    3.2083    9.0317 C.3     1  LIG1       -0.0032
     31 H           1.4240    3.9834    8.5875 H       1  LIG1        0.0357
     32 C           1.1970    3.3215   10.5285 C.3     1  LIG1        0.0687
     33 H           0.7060    2.5560   10.9440 H       1  LIG1        0.0449
     34 C           0.6035    4.5923   11.1335 C.ar    1  LIG1       -0.0349
     35 C          -0.4423    4.4855   12.0201 C.ar    1  LIG1       -0.0578
     36 H          -0.7626    3.6252   12.2648 H       1  LIG1        0.0620
     37 C          -1.0299    5.6076   12.5585 C.ar    1  LIG1       -0.0615
     38 H          -1.7457    5.5120   13.1765 H       1  LIG1        0.0618
     39 C          -0.5968    6.8535   12.2142 C.ar    1  LIG1       -0.0617
     40 H          -1.0062    7.6246   12.5897 H       1  LIG1        0.0618
     41 C           0.4388    6.9820   11.3191 C.ar    1  LIG1       -0.0615
     42 H           0.7418    7.8447   11.0624 H       1  LIG1        0.0618
     43 C           1.0429    5.8422   10.7850 C.ar    1  LIG1       -0.0578
     44 H           1.7661    5.9338   10.1758 H       1  LIG1        0.0620
     45 C           2.6630    3.1761   10.9540 C.2     1  LIG1        0.2428
     46 N           3.5201    2.5110   10.0829 N.am    1  LIG1       -0.1672
     47 O           5.6967    3.3946   11.0825 O.2     1  LIG1       -0.1497
     48 O           5.6961    1.5431    9.4781 O.2     1  LIG1       -0.1497
     49 O           3.0522    3.5280   12.0482 O.2     1  LIG1       -0.2733
     50 S           5.0873    2.2079   10.5931 S.O2    1  LIG1        0.0771
@<TRIPOS>BOND
     1    23    21    1
     2    29    27    1
     3    20    19    1
     4    21    19    1
     5    21    22    1
     6    21    24    1
     7    16    15    1
     8    19    18    2
     9    25    24    1
    10    18    15    1
    11    18    30    1
    12    31    30    1
    13    17    15    1
    14    27    24    1
    15    27    30    1
    16    27    28    1
    17    15    46    1
    18    24    26    1
    19    30    32    1
    20    48    50    2
    21    46    50    1
    22    46    45   am
    23    44    43    1
    24    32    33    1
    25    32    45    1
    26    32    34    1
    27    50    47    2
    28    50     1    1
    29    43    34   ar
    30    43    41   ar
    31    14    13    1
    32    45    49    2
    33    42    41    1
    34    34    35   ar
    35    41    39   ar
    36    13     1   ar
    37    13    11   ar
    38     1     2   ar
    39    35    36    1
    40    35    37   ar
    41    39    37   ar
    42    39    40    1
    43    12    11    1
    44    37    38    1
    45    11     6   ar
    46     2     3    1
    47     2     4   ar
    48     6     4   ar
    49     6     7    1
    50     4     5    1
    51     8     7    1
    52     7     9    1
    53     7    10    1
