@<TRIPOS>MOLECULE
C30 H26 O4
 120 130 0 0 0
SMALL
GASTEIGER

@<TRIPOS>ATOM
      1 C          10.6668   12.0322   11.6689 C.ar    1  LIG1        0.0019
      2 C           9.3957   11.8571   11.1395 C.ar    1  LIG1        0.1250
      3 C           8.7370   12.8637   10.4601 C.ar    1  LIG1       -0.0196
      4 H           7.8775   12.7227   10.0818 H       1  LIG1        0.0654
      5 C           9.3817   14.0898   10.3518 C.ar    1  LIG1       -0.0583
      6 H           8.9485   14.8065    9.9013 H       1  LIG1        0.0619
      7 C          10.6488   14.2884   10.8894 C.ar    1  LIG1       -0.0613
      8 H          11.0701   15.1354   10.8074 H       1  LIG1        0.0618
      9 C          11.3012   13.2546   11.5457 C.ar    1  LIG1       -0.0547
     10 H          12.1711   13.3847   11.9045 H       1  LIG1        0.0622
     11 C          11.0941   10.7619   12.3568 C.3     1  LIG1        0.0394
     12 H          11.7921   10.3114   11.8003 H       1  LIG1        0.0397
     13 C           9.7866    9.9136   12.3100 C.3     1  LIG1        0.1327
     14 H           9.3711    9.9202   13.2203 H       1  LIG1        0.0791
     15 C           9.9611    8.4884   11.8779 C.ar    1  LIG1       -0.0065
     16 C          10.1124    8.1357   10.5444 C.ar    1  LIG1       -0.0516
     17 H          10.1148    8.8173    9.8822 H       1  LIG1        0.0623
     18 C          10.2620    6.8128   10.1518 C.ar    1  LIG1       -0.0196
     19 H          10.3501    6.5903    9.2330 H       1  LIG1        0.0654
     20 C          10.2807    5.8191   11.1221 C.ar    1  LIG1        0.1201
     21 C          10.1594    6.1524   12.4613 C.ar    1  LIG1       -0.0196
     22 H          10.1887    5.4732   13.1248 H       1  LIG1        0.0654
     23 C           9.9954    7.4754   12.8288 C.ar    1  LIG1       -0.0516
     24 H           9.9040    7.6960   13.7480 H       1  LIG1        0.0623
     25 C          10.3434    4.0560    9.5078 C.3     1  LIG1        0.0788
     26 H          11.0928    4.4427    9.0108 H       1  LIG1        0.0660
     27 H           9.4993    4.3604    9.1132 H       1  LIG1        0.0660
     28 H          10.3919    3.0775    9.4621 H       1  LIG1        0.0660
     29 C          11.9302    9.7719   14.5718 C.ar    1  LIG1        0.0019
     30 C          11.1873    9.8311   15.7379 C.ar    1  LIG1        0.1250
     31 C          11.1868    8.8088   16.6750 C.ar    1  LIG1       -0.0196
     32 H          10.6563    8.8584   17.4627 H       1  LIG1        0.0654
     33 C          11.9961    7.7068   16.4130 C.ar    1  LIG1       -0.0583
     34 H          12.0180    6.9858   17.0305 H       1  LIG1        0.0619
     35 C          12.7735    7.6461   15.2590 C.ar    1  LIG1       -0.0613
     36 H          13.3296    6.8922   15.1054 H       1  LIG1        0.0618
     37 C          12.7407    8.6785   14.3329 C.ar    1  LIG1       -0.0547
     38 H          13.2688    8.6344   13.5449 H       1  LIG1        0.0622
     39 C          11.6679   11.0149   13.7660 C.3     1  LIG1        0.0394
     40 H          12.5246   11.5234   13.6751 H       1  LIG1        0.0397
     41 C          10.7066   11.8200   14.6848 C.3     1  LIG1        0.1327
     42 H           9.8321   11.9289   14.2114 H       1  LIG1        0.0791
     43 C          11.2142   13.1791   15.0656 C.ar    1  LIG1       -0.0065
     44 C          12.4563   13.3446   15.6855 C.ar    1  LIG1       -0.0516
     45 H          12.9724   12.5809   15.9126 H       1  LIG1        0.0623
     46 C          12.9402   14.6013   15.9700 C.ar    1  LIG1       -0.0196
     47 H          13.7802   14.7002   16.4021 H       1  LIG1        0.0654
     48 C          12.1989   15.7241   15.6244 C.ar    1  LIG1        0.1201
     49 C          10.9694   15.5839   15.0028 C.ar    1  LIG1       -0.0196
     50 H          10.4602   16.3488   14.7600 H       1  LIG1        0.0654
     51 C          10.4946   14.3077   14.7423 C.ar    1  LIG1       -0.0516
     52 H           9.6449   14.2083   14.3277 H       1  LIG1        0.0623
     53 C          12.1925   18.0983   15.3854 C.3     1  LIG1        0.0788
     54 H          11.2820   18.2087   15.7303 H       1  LIG1        0.0660
     55 H          12.1645   18.0116   14.4093 H       1  LIG1        0.0660
     56 H          12.7317   18.8792   15.6296 H       1  LIG1        0.0660
     57 C          15.2775   14.7344   10.5410 C.ar    2  LIG2        0.0019
     58 C          14.5896   14.6400   11.7363 C.ar    2  LIG2        0.1250
     59 C          13.7289   15.6260   12.1760 C.ar    2  LIG2       -0.0196
     60 H          13.2791   15.5536   13.0102 H       2  LIG2        0.0654
     61 C          13.5476   16.7269   11.3497 C.ar    2  LIG2       -0.0583
     62 H          12.9612   17.4234   11.6233 H       2  LIG2        0.0619
     63 C          14.2073   16.8297   10.1306 C.ar    2  LIG2       -0.0613
     64 H          14.0595   17.5864    9.5750 H       2  LIG2        0.0618
     65 C          15.0845   15.8301    9.7194 C.ar    2  LIG2       -0.0547
     66 H          15.5418   15.8995    8.8893 H       2  LIG2        0.0622
     67 C          16.1899   13.5403   10.4136 C.3     2  LIG2        0.0394
     68 H          15.9796   13.0487    9.5698 H       2  LIG2        0.0397
     69 C          15.7852   12.6697   11.6356 C.3     2  LIG2        0.1327
     70 H          16.5988   12.5143   12.1944 H       2  LIG2        0.0791
     71 C          15.1972   11.3410   11.2836 C.ar    2  LIG2       -0.0065
     72 C          15.7105   10.1831   11.8324 C.ar    2  LIG2       -0.0516
     73 H          16.4310   10.2462   12.4478 H       2  LIG2        0.0623
     74 C          15.2054    8.9287   11.5117 C.ar    2  LIG2       -0.0196
     75 H          15.5799    8.1454   11.8975 H       2  LIG2        0.0654
     76 C          14.1494    8.8377   10.6206 C.ar    2  LIG2        0.1201
     77 C          13.6302    9.9916   10.0327 C.ar    2  LIG2       -0.0196
     78 H          12.9187    9.9272    9.4066 H       2  LIG2        0.0654
     79 C          14.1496   11.2226   10.3625 C.ar    2  LIG2       -0.0516
     80 H          13.7924   12.0040    9.9586 H       2  LIG2        0.0623
     81 C          13.9560    6.4794   10.8972 C.3     2  LIG2        0.0788
     82 H          13.8249    6.5633   11.8646 H       2  LIG2        0.0660
     83 H          14.9047    6.3238   10.7085 H       2  LIG2        0.0660
     84 H          13.4277    5.7256   10.5609 H       2  LIG2        0.0660
     85 C          18.5911   12.7172   10.5137 C.ar    2  LIG2        0.0019
     86 C          19.3677   12.8209   11.6524 C.ar    2  LIG2        0.1250
     87 C          20.2798   11.8451   12.0223 C.ar    2  LIG2       -0.0196
     88 H          20.8108   11.9359   12.8054 H       2  LIG2        0.0654
     89 C          20.3852   10.7337   11.2063 C.ar    2  LIG2       -0.0583
     90 H          20.9987   10.0449   11.4341 H       2  LIG2        0.0619
     91 C          19.6120   10.6048   10.0603 C.ar    2  LIG2       -0.0613
     92 H          19.7056    9.8351    9.5125 H       2  LIG2        0.0618
     93 C          18.7015   11.5935    9.7088 C.ar    2  LIG2       -0.0547
     94 H          18.1643   11.5007    8.9310 H       2  LIG2        0.0622
     95 C          17.6819   13.9177   10.4297 C.3     2  LIG2        0.0394
     96 H          17.8973   14.4337    9.6010 H       2  LIG2        0.0397
     97 C          18.1106   14.7488   11.6733 C.3     2  LIG2        0.1327
     98 H          17.3180   14.8547   12.2742 H       2  LIG2        0.0791
     99 C          18.6456   16.1073   11.3419 C.ar    2  LIG2       -0.0065
    100 C          19.9266   16.2707   10.8171 C.ar    2  LIG2       -0.0516
    101 H          20.4849   15.5111   10.6998 H       2  LIG2        0.0623
    102 C          20.3953   17.5193   10.4674 C.ar    2  LIG2       -0.0196
    103 H          21.2721   17.6147   10.1148 H       2  LIG2        0.0654
    104 C          19.5886   18.6349   10.6304 C.ar    2  LIG2        0.1201
    105 C          18.3131   18.4949   11.1556 C.ar    2  LIG2       -0.0196
    106 H          17.7576   19.2563   11.2778 H       2  LIG2        0.0654
    107 C          17.8543   17.2274   11.5028 C.ar    2  LIG2       -0.0516
    108 H          16.9783   17.1313   11.8576 H       2  LIG2        0.0623
    109 C          19.4064   21.0040   10.5373 C.3     2  LIG2        0.0788
    110 H          19.2129   21.0452   11.4966 H       2  LIG2        0.0660
    111 H          18.5652   20.9885   10.0332 H       2  LIG2        0.0660
    112 H          19.9300   21.7895   10.2763 H       2  LIG2        0.0660
    113 O           8.8825   10.6097   11.3787 O.3     1  LIG1       -0.4833
    114 O          10.4100    4.4727   10.8687 O.3     1  LIG1       -0.4951
    115 O          10.4863   10.9975   15.8872 O.3     1  LIG1       -0.4833
    116 O          12.7722   16.9292   15.9476 O.3     1  LIG1       -0.4951
    117 O          14.8316   13.4767   12.4192 O.3     2  LIG2       -0.4833
    118 O          13.5355    7.6784   10.2551 O.3     2  LIG2       -0.4951
    119 O          19.1296   13.9616   12.3754 O.3     2  LIG2       -0.4833
    120 O          20.1471   19.8283   10.2561 O.3     2  LIG2       -0.4951
@<TRIPOS>BOND
     1    66    65    1
     2    94    93    1
     3    26    25    1
     4    27    25    1
     5    19    18    1
     6    78    77    1
     7    28    25    1
     8    25   114    1
     9    92    91    1
    10    68    67    1
    11    64    63    1
    12    96    95    1
    13    93    91   ar
    14    93    85   ar
    15    65    63   ar
    16    65    57   ar
    17    17    16    1
    18     6     5    1
    19    80    79    1
    20    77    79   ar
    21    77    76   ar
    22   111   109    1
    23    91    89   ar
    24     4     3    1
    25   103   102    1
    26    63    61   ar
    27    18    16   ar
    28    18    20   ar
    29   118    76    1
    30   118    81    1
    31   120   109    1
    32   120   104    1
    33   112   109    1
    34     5     3   ar
    35     5     7   ar
    36    79    71   ar
    37    67    95    1
    38    67    57    1
    39    67    69    1
    40    95    85    1
    41    95    97    1
    42     3     2   ar
    43   102   104   ar
    44   102   100   ar
    45    85    86   ar
    46   109   110    1
    47    57    58   ar
    48    16    15   ar
    49    84    81    1
    50    76    74   ar
    51   104   105   ar
    52   101   100    1
    53    83    81    1
    54     8     7    1
    55   100    99   ar
    56   114    20    1
    57     7     9   ar
    58    81    82    1
    59    20    21   ar
    60     2   113    1
    61     2     1   ar
    62   105   106    1
    63   105   107   ar
    64    89    90    1
    65    89    87   ar
    66    71    69    1
    67    71    72   ar
    68    99   107   ar
    69    99    97    1
    70    61    62    1
    71    61    59   ar
    72   113    13    1
    73   107   108    1
    74    74    72   ar
    75    74    75    1
    76     9     1   ar
    77     9    10    1
    78    69    70    1
    79    69   117    1
    80    86    87   ar
    81    86   119    1
    82     1    11    1
    83    97    98    1
    84    97   119    1
    85    58    59   ar
    86    58   117    1
    87    12    11    1
    88    72    73    1
    89    15    13    1
    90    15    23   ar
    91    87    88    1
    92    59    60    1
    93    13    11    1
    94    13    14    1
    95    11    39    1
    96    21    23   ar
    97    21    22    1
    98    23    24    1
    99    38    37    1
   100    40    39    1
   101    39    29    1
   102    39    41    1
   103    42    41    1
   104    52    51    1
   105    37    29   ar
   106    37    35   ar
   107    55    53    1
   108    29    30   ar
   109    41    43    1
   110    41   115    1
   111    51    49   ar
   112    51    43   ar
   113    50    49    1
   114    49    48   ar
   115    43    44   ar
   116    36    35    1
   117    35    33   ar
   118    53    56    1
   119    53    54    1
   120    53   116    1
   121    48   116    1
   122    48    46   ar
   123    44    45    1
   124    44    46   ar
   125    30   115    1
   126    30    31   ar
   127    46    47    1
   128    33    31   ar
   129    33    34    1
   130    31    32    1
