@<TRIPOS>MOLECULE
?
 50 53 0 0 0
SMALL
GASTEIGER

@<TRIPOS>ATOM
      1 C          -1.8470   11.0203   -0.5936 C.3     1  LIG1       -0.0397
      2 H          -2.0120   11.5138   -1.4245 H       1  LIG1        0.0278
      3 H          -1.8959   11.6376    0.1667 H       1  LIG1        0.0278
      4 H          -2.5226   10.3189   -0.4886 H       1  LIG1        0.0278
      5 C          -0.4848   10.3987   -0.6450 C.ar    1  LIG1       -0.0503
      6 C          -0.3206    9.0128   -0.6272 C.ar    1  LIG1       -0.0570
      7 H          -1.0820    8.4479   -0.5572 H       1  LIG1        0.0621
      8 C           0.9527    8.4521   -0.7123 C.ar    1  LIG1       -0.0365
      9 H           1.0634    7.5092   -0.7109 H       1  LIG1        0.0637
     10 C           2.0442    9.2795   -0.7987 C.ar    1  LIG1        0.0907
     11 C           1.9132   10.6591   -0.7891 C.ar    1  LIG1       -0.0365
     12 H           2.6801   11.2177   -0.8282 H       1  LIG1        0.0637
     13 C           0.6577   11.2051   -0.7232 C.ar    1  LIG1       -0.0570
     14 H           0.5596   12.1500   -0.7308 H       1  LIG1        0.0621
     15 S           3.6588    8.5798   -0.9419 S.O2    1  LIG1        0.0235
     16 O           3.5621    7.2909   -1.5721 O.2     1  LIG1       -0.1672
     17 O           4.5593    9.5545   -1.4904 O.2     1  LIG1       -0.1672
     18 C           4.1579    8.3030    0.7898 C.3     1  LIG1        0.2161
     19 H           4.2618    9.1724    1.2743 H       1  LIG1        0.0835
     20 N           3.1409    7.4798    1.4170 N.2     1  LIG1       -0.2135
     21 C           3.6805    6.3417    1.5872 C.2     1  LIG1        0.2548
     22 O           4.9985    6.1695    1.3031 O.2     1  LIG1       -0.4596
     23 C           5.4773    7.4819    0.8385 C.3     1  LIG1        0.1697
     24 H           5.8655    7.4000   -0.0796 H       1  LIG1        0.0824
     25 C           6.5113    7.9964    1.7875 C.ar    1  LIG1       -0.0035
     26 C           6.1396    8.5256    3.0405 C.ar    1  LIG1       -0.0539
     27 H           5.2210    8.5949    3.2690 H       1  LIG1        0.0622
     28 C           7.1084    8.9456    3.9429 C.ar    1  LIG1       -0.0474
     29 H           6.8599    9.3005    4.7883 H       1  LIG1        0.0629
     30 C           8.4417    8.8385    3.5860 C.ar    1  LIG1        0.0179
     31 C           8.8321    8.3534    2.3488 C.ar    1  LIG1       -0.0474
     32 H           9.7540    8.3156    2.1169 H       1  LIG1        0.0629
     33 C           7.8732    7.9313    1.4588 C.ar    1  LIG1       -0.0539
     34 H           8.1354    7.5911    0.6121 H       1  LIG1        0.0622
     35 BR          9.7714    9.3500    4.8380 Br      1  LIG1       -0.0503
     36 S           2.9418    4.8650    2.1402 S.3     1  LIG1       -0.0318
     37 C           1.2373    5.3547    2.1752 C.ar    1  LIG1        0.0171
     38 C           0.4294    5.1196    1.0355 C.ar    1  LIG1       -0.0476
     39 H           0.8027    4.7290    0.2532 H       1  LIG1        0.0629
     40 C          -0.9110    5.4660    1.0773 C.ar    1  LIG1       -0.0578
     41 H          -1.4501    5.3127    0.3102 H       1  LIG1        0.0621
     42 C          -1.4916    6.0330    2.2061 C.ar    1  LIG1       -0.0504
     43 C          -0.6741    6.2535    3.3143 C.ar    1  LIG1       -0.0578
     44 H          -1.0470    6.6567    4.0904 H       1  LIG1        0.0621
     45 C           0.6682    5.9028    3.3136 C.ar    1  LIG1       -0.0476
     46 H           1.1960    6.0393    4.0911 H       1  LIG1        0.0629
     47 C          -2.9450    6.4152    2.2123 C.3     1  LIG1       -0.0397
     48 H          -3.1333    6.9738    2.9952 H       1  LIG1        0.0278
     49 H          -3.4964    5.6046    2.2493 H       1  LIG1        0.0278
     50 H          -3.1549    6.9150    1.3964 H       1  LIG1        0.0278
@<TRIPOS>BOND
     1    16    15    2
     2    17    15    2
     3     2     1    1
     4    15    10    1
     5    15    18    1
     6    12    11    1
     7    10    11   ar
     8    10     8   ar
     9    11    13   ar
    10    14    13    1
    11    13     5   ar
    12     8     9    1
    13     8     6   ar
    14     5     6   ar
    15     5     1    1
    16     6     7    1
    17     1     4    1
    18     1     3    1
    19    24    23    1
    20    39    38    1
    21    41    40    1
    22    34    33    1
    23    18    23    1
    24    18    19    1
    25    18    20    1
    26    23    22    1
    27    23    25    1
    28    38    40   ar
    29    38    37   ar
    30    40    42   ar
    31    22    21    1
    32    50    47    1
    33    20    21    2
    34    33    25   ar
    35    33    31   ar
    36    21    36    1
    37    25    26   ar
    38    32    31    1
    39    36    37    1
    40    37    45   ar
    41    42    47    1
    42    42    43   ar
    43    47    49    1
    44    47    48    1
    45    31    30   ar
    46    26    27    1
    47    26    28   ar
    48    45    43   ar
    49    45    46    1
    50    43    44    1
    51    30    28   ar
    52    30    35    1
    53    28    29    1
