@<TRIPOS>MOLECULE
C11 H21 N O
 68 70 0 0 0
SMALL
GASTEIGER

@<TRIPOS>ATOM
      1 O          15.6606    5.5069    0.2124 O.3     1  LIG1       -0.3947
      2 H          14.8518    5.3646    0.0353 H       1  LIG1        0.2094
      3 O           5.1108    1.2065    3.9912 O.3     2  LIG2       -0.3947
      4 H           5.4901    1.0122    4.7161 H       2  LIG2        0.2094
      5 N          13.1901    4.6122    0.7899 N.3     1  LIG1       -0.3102
      6 H          13.4593    3.7450    0.7334 H       1  LIG1        0.1225
      7 N           5.2407    0.3549    6.5543 N.3     2  LIG2       -0.3102
      8 H           5.2250   -0.5209    6.3084 H       2  LIG2        0.1225
      9 C          15.7906    5.8603    1.5901 C.3     1  LIG1        0.0487
     10 H          15.5568    6.8162    1.6982 H       1  LIG1        0.0560
     11 H          16.7363    5.7499    1.8610 H       1  LIG1        0.0560
     12 C          14.9035    5.0205    2.5271 C.3     1  LIG1        0.0004
     13 H          15.0050    5.4195    3.4376 H       1  LIG1        0.0341
     14 C          15.4323    3.5827    2.6289 C.3     1  LIG1       -0.0464
     15 H          15.4091    3.1664    1.7315 H       1  LIG1        0.0269
     16 H          16.3752    3.6065    2.9277 H       1  LIG1        0.0269
     17 C          14.6243    2.7169    3.5994 C.3     1  LIG1       -0.0526
     18 H          14.9524    1.7834    3.5611 H       1  LIG1        0.0265
     19 H          14.7506    3.0502    4.5239 H       1  LIG1        0.0265
     20 C          13.1408    2.7523    3.2423 C.3     1  LIG1       -0.0514
     21 H          13.0037    2.3346    2.3551 H       1  LIG1        0.0266
     22 H          12.6264    2.2329    3.9102 H       1  LIG1        0.0266
     23 C          12.6348    4.1901    3.2136 C.3     1  LIG1       -0.0343
     24 H          12.7337    4.5833    4.1161 H       1  LIG1        0.0283
     25 H          11.6710    4.1872    2.9885 H       1  LIG1        0.0283
     26 C          13.3847    5.0768    2.1971 C.3     1  LIG1        0.0240
     27 C          12.8759    6.5240    2.2712 C.3     1  LIG1       -0.0343
     28 H          12.9367    6.8378    3.2081 H       1  LIG1        0.0283
     29 H          13.4655    7.0997    1.7217 H       1  LIG1        0.0283
     30 C          11.4393    6.6856    1.7886 C.3     1  LIG1       -0.0502
     31 H          11.1901    7.6437    1.7982 H       1  LIG1        0.0266
     32 H          10.8273    6.2015    2.3983 H       1  LIG1        0.0266
     33 C          11.2969    6.1322    0.3728 C.3     1  LIG1       -0.0404
     34 H          10.3448    6.1604    0.1020 H       1  LIG1        0.0277
     35 H          11.8122    6.6964   -0.2569 H       1  LIG1        0.0277
     36 C          11.8030    4.7002    0.3012 C.3     1  LIG1       -0.0036
     37 H          11.2210    4.1165    0.8511 H       1  LIG1        0.0424
     38 H          11.7616    4.3813   -0.6354 H       1  LIG1        0.0424
     39 C           3.7453    1.5468    4.2437 C.3     2  LIG2        0.0487
     40 H           3.2233    1.4184    3.4121 H       2  LIG2        0.0560
     41 H           3.6928    2.5041    4.4886 H       2  LIG2        0.0560
     42 C           3.1115    0.7113    5.3619 C.3     2  LIG2        0.0004
     43 H           2.1900    1.0771    5.4985 H       2  LIG2        0.0341
     44 C           2.9349   -0.7474    4.9246 C.3     2  LIG2       -0.0464
     45 H           2.4278   -0.7712    4.0749 H       2  LIG2        0.0269
     46 H           3.8265   -1.1449    4.7573 H       2  LIG2        0.0269
     47 C           2.1996   -1.5901    5.9674 C.3     2  LIG2       -0.0526
     48 H           1.2650   -1.2755    6.0476 H       2  LIG2        0.0265
     49 H           2.1807   -2.5359    5.6750 H       2  LIG2        0.0265
     50 C           2.8904   -1.4905    7.3266 C.3     2  LIG2       -0.0514
     51 H           2.3575   -1.9767    8.0047 H       2  LIG2        0.0266
     52 H           3.7833   -1.9161    7.2752 H       2  LIG2        0.0266
     53 C           3.0463   -0.0325    7.7539 C.3     2  LIG2       -0.0343
     54 H           3.5113   -0.0022    8.6282 H       2  LIG2        0.0283
     55 H           2.1472    0.3636    7.8772 H       2  LIG2        0.0283
     56 C           3.8339    0.8210    6.7391 C.3     2  LIG2        0.0240
     57 C           3.8966    2.2812    7.2093 C.3     2  LIG2       -0.0343
     58 H           4.2642    2.8389    6.4790 H       2  LIG2        0.0283
     59 H           2.9785    2.5986    7.3968 H       2  LIG2        0.0283
     60 C           4.7541    2.4731    8.4600 C.3     2  LIG2       -0.0502
     61 H           4.8036    3.4362    8.6851 H       2  LIG2        0.0266
     62 H           4.3397    1.9991    9.2244 H       2  LIG2        0.0266
     63 C           6.1569    1.9299    8.2192 C.3     2  LIG2       -0.0404
     64 H           6.6132    2.4803    7.5340 H       2  LIG2        0.0277
     65 H           6.6810    1.9832    9.0577 H       2  LIG2        0.0277
     66 C           6.0908    0.4877    7.7513 C.3     2  LIG2       -0.0036
     67 H           7.0039    0.1674    7.5438 H       2  LIG2        0.0424
     68 H           5.7260   -0.0779    8.4773 H       2  LIG2        0.0424
@<TRIPOS>BOND
     1    38    36    1
     2    35    33    1
     3     2     1    1
     4    34    33    1
     5     1     9    1
     6    36    33    1
     7    36     5    1
     8    36    37    1
     9    33    30    1
    10     6     5    1
    11     5    26    1
    12     9    10    1
    13     9    11    1
    14     9    12    1
    15    29    27    1
    16    15    14    1
    17    30    31    1
    18    30    27    1
    19    30    32    1
    20    26    27    1
    21    26    12    1
    22    26    23    1
    23    27    28    1
    24    21    20    1
    25    12    14    1
    26    12    13    1
    27    14    16    1
    28    14    17    1
    29    25    23    1
    30    23    20    1
    31    23    24    1
    32    20    17    1
    33    20    22    1
    34    40    39    1
    35    18    17    1
    36    17    19    1
    37     3    39    1
    38     3     4    1
    39    45    44    1
    40    39    41    1
    41    39    42    1
    42    46    44    1
    43    44    42    1
    44    44    47    1
    45    42    43    1
    46    42    56    1
    47    49    47    1
    48    47    48    1
    49    47    50    1
    50     8     7    1
    51    58    57    1
    52     7    56    1
    53     7    66    1
    54    56    57    1
    55    56    53    1
    56    57    59    1
    57    57    60    1
    58    52    50    1
    59    50    53    1
    60    50    51    1
    61    64    63    1
    62    67    66    1
    63    66    63    1
    64    66    68    1
    65    53    55    1
    66    53    54    1
    67    63    60    1
    68    63    65    1
    69    60    61    1
    70    60    62    1
