@<TRIPOS>MOLECULE
C13 H5 F5 N2 O
 26 27 0 0 0
SMALL
GASTEIGER

@<TRIPOS>ATOM
      1 F           5.2363    4.7564    9.0723 F       1  LIG1       -0.2002
      2 F           6.1160    4.1292    6.6028 F       1  LIG1       -0.1993
      3 F           7.1931    6.0562    5.0169 F       1  LIG1       -0.1993
      4 F           7.4010    8.5960    5.9130 F       1  LIG1       -0.1993
      5 F           6.5555    9.2429    8.3535 F       1  LIG1       -0.2002
      6 N           5.3494    7.2329   10.1012 N.pl3   1  LIG1       -0.1203
      7 N           4.9252    8.3798   10.2936 N.am    1  LIG1       -0.0866
      8 O           3.9543    7.6294   12.2920 O.2     1  LIG1       -0.2667
      9 C           4.9449   10.9731   11.3239 C.ar    1  LIG1       -0.0495
     10 H           5.2239   10.7988   10.4541 H       1  LIG1        0.0625
     11 C           4.9865   12.2608   11.8289 C.ar    1  LIG1       -0.0610
     12 H           5.3018   12.9553   11.2967 H       1  LIG1        0.0618
     13 C           4.5639   12.5223   13.1140 C.ar    1  LIG1       -0.0617
     14 H           4.5918   13.3924   13.4426 H       1  LIG1        0.0618
     15 C           4.0963   11.4906   13.9249 C.ar    1  LIG1       -0.0610
     16 H           3.8198   11.6675   14.7948 H       1  LIG1        0.0618
     17 C           4.0461   10.2090   13.4313 C.ar    1  LIG1       -0.0495
     18 H           3.7217    9.5200   13.9647 H       1  LIG1        0.0625
     19 C           4.4778    9.9387   12.1371 C.ar    1  LIG1        0.0400
     20 C           4.4136    8.5460   11.6695 C.2     1  LIG1        0.2829
     21 C           5.8255    7.0148    8.7858 C.ar    1  LIG1        0.1485
     22 C           5.7698    5.7160    8.3036 C.ar    1  LIG1        0.1886
     23 C           6.2175    5.3812    7.0496 C.ar    1  LIG1        0.1983
     24 C           6.7544    6.3637    6.2350 C.ar    1  LIG1        0.1992
     25 C           6.8461    7.6513    6.6958 C.ar    1  LIG1        0.1983
     26 C           6.3782    7.9829    7.9427 C.ar    1  LIG1        0.1886
@<TRIPOS>BOND
     1     3    24    1
     2     4    25    1
     3    24    25   ar
     4    24    23   ar
     5     2    23    1
     6    25    26   ar
     7    23    22   ar
     8    26     5    1
     9    26    21   ar
    10    22    21   ar
    11    22     1    1
    12    21     6    1
    13     6     7    1
    14     7    20   am
    15    10     9    1
    16    12    11    1
    17     9    11   ar
    18     9    19   ar
    19    20    19    1
    20    20     8    2
    21    11    13   ar
    22    19    17   ar
    23    13    14    1
    24    13    15   ar
    25    17    15   ar
    26    17    18    1
    27    15    16    1
