@<TRIPOS>MOLECULE
C11 H17 I O4
 33 34 0 0 0
SMALL
GASTEIGER

@<TRIPOS>ATOM
      1 I           3.5240    7.3055   13.9443 I       1  LIG1       -0.0460
      2 O           3.9474    5.5275    9.3875 O.3     1  LIG1       -0.3742
      3 O           3.9378    8.4289    8.7951 O.3     1  LIG1       -0.3731
      4 O           0.9544    5.7525   12.3418 O.3     1  LIG1       -0.3383
      5 O           0.5399    6.3261   10.1603 O.3     1  LIG1       -0.3404
      6 C           2.9822    7.0369   11.9349 C.2     1  LIG1        0.0208
      7 C           2.2119    5.7727   11.6646 C.3     1  LIG1        0.1208
      8 C           1.7892    5.6514   10.1985 C.3     1  LIG1        0.1213
      9 C           2.7666    6.2910    9.2240 C.3     1  LIG1        0.1168
     10 C           2.9377    7.7693    9.5737 C.3     1  LIG1        0.1061
     11 C           3.3236    7.9344   11.0230 C.2     1  LIG1       -0.0414
     12 C           4.8167    5.4975    8.2684 C.3     1  LIG1        0.0370
     13 C           3.4854    8.7702    7.4861 C.3     1  LIG1        0.0373
     14 C          -0.0641    6.2413   11.4615 C.3     1  LIG1        0.1659
     15 C          -1.1938    5.2317   11.4730 C.3     1  LIG1       -0.0108
     16 C          -0.5211    7.6246   11.8417 C.3     1  LIG1       -0.0108
     17 H           2.7361    5.0143   11.9723 H       1  LIG1        0.0679
     18 H           1.6454    4.6991    9.9868 H       1  LIG1        0.0654
     19 H           2.4212    6.1693    8.3274 H       1  LIG1        0.0652
     20 H           2.0962    8.2295    9.4346 H       1  LIG1        0.0667
     21 H           3.7862    8.7161   11.2839 H       1  LIG1        0.0606
     22 H           5.3941    4.7290    8.3607 H       1  LIG1        0.0524
     23 H           5.3378    6.2935    8.2767 H       1  LIG1        0.0524
     24 H           4.3182    5.4538    7.4477 H       1  LIG1        0.0524
     25 H           4.1510    9.3120    7.0651 H       1  LIG1        0.0524
     26 H           2.6635    9.2499    7.5477 H       1  LIG1        0.0524
     27 H           3.3354    7.9845    6.9535 H       1  LIG1        0.0524
     28 H          -1.9189    5.5630   10.9288 H       1  LIG1        0.0281
     29 H          -1.5032    5.0730   12.3578 H       1  LIG1        0.0281
     30 H          -0.8704    4.3977   11.1157 H       1  LIG1        0.0281
     31 H          -1.1126    7.9581   11.1723 H       1  LIG1        0.0281
     32 H          -0.9673    7.5968   12.6809 H       1  LIG1        0.0281
     33 H           0.2305    8.2364   11.8766 H       1  LIG1        0.0281
@<TRIPOS>BOND
     1    27    13    1
     2    25    13    1
     3    24    12    1
     4    13    26    1
     5    13     3    1
     6    12    23    1
     7    12    22    1
     8    12     2    1
     9    19     9    1
    10     3    10    1
    11     9     2    1
    12     9    10    1
    13     9     8    1
    14    20    10    1
    15    10    11    1
    16    18     8    1
    17     5     8    1
    18     5    14    1
    19     8     7    1
    20    28    15    1
    21    11    21    1
    22    11     6    2
    23    30    15    1
    24    31    16    1
    25    14    15    1
    26    14    16    1
    27    14     4    1
    28    15    29    1
    29     7     6    1
    30     7    17    1
    31     7     4    1
    32    16    33    1
    33    16    32    1
    34     6     1    1
