@<TRIPOS>MOLECULE
C25 H28 O5
 116 124 0 0 0
SMALL
GASTEIGER

@<TRIPOS>ATOM
      1 O           6.6174    9.8786    4.5497 O.2     1  LIG1       -0.2921
      2 O           6.2660   10.0717   -1.5573 O.2     1  LIG1       -0.2501
      3 O           7.4212    8.1603   -1.4442 O.3     1  LIG1       -0.4633
      4 O          10.0411    6.3763    1.6733 O.2     1  LIG1       -0.2959
      5 O          15.7830    7.2808   -0.1250 O.2     1  LIG1       -0.2921
      6 O           1.3010    9.9058    7.4182 O.2     2  LIG2       -0.2921
      7 O          10.3242    6.9058   11.7768 O.2     2  LIG2       -0.2918
      8 O          10.7924    7.4623    5.5725 O.2     2  LIG2       -0.2453
      9 O           9.6063    9.3215    5.9511 O.3     2  LIG2       -0.4601
     10 O           6.9339   10.5406    9.2403 O.2     2  LIG2       -0.2959
     11 C           8.1777   11.7000    3.2330 C.3     1  LIG1       -0.0522
     12 H           8.6897   12.2613    2.6147 H       1  LIG1        0.0239
     13 H           8.6657   11.6164    4.0781 H       1  LIG1        0.0239
     14 H           7.3034   12.1109    3.3991 H       1  LIG1        0.0239
     15 C           7.9811   10.3146    2.6189 C.3     1  LIG1        0.0353
     16 C           9.3831    9.6152    2.4328 C.3     1  LIG1       -0.0269
     17 H          10.0749   10.3189    2.3489 H       1  LIG1        0.0284
     18 H           9.5841    9.0959    3.2503 H       1  LIG1        0.0284
     19 C           9.4976    8.6666    1.2084 C.3     1  LIG1        0.0442
     20 C          10.4660    7.4912    1.4872 C.2     1  LIG1        0.1503
     21 C          11.9832    7.7651    1.4853 C.3     1  LIG1        0.0488
     22 C          12.3294    8.5159    0.1744 C.3     1  LIG1       -0.0133
     23 H          11.9914    7.9305   -0.5634 H       1  LIG1        0.0322
     24 C          13.8499    8.6920   -0.1034 C.3     1  LIG1        0.0314
     25 C          14.5036    9.8399    0.6804 C.3     1  LIG1       -0.0525
     26 H          14.5379    9.6073    1.6324 H       1  LIG1        0.0239
     27 H          13.9764   10.6577    0.5634 H       1  LIG1        0.0239
     28 H          15.4127    9.9867    0.3467 H       1  LIG1        0.0239
     29 C           7.1552    9.4274    3.5505 C.2     1  LIG1        0.1622
     30 C           8.0456    8.1017    0.8926 C.3     1  LIG1        0.0554
     31 C           7.2493    9.3272    0.5257 C.3     1  LIG1        0.1018
     32 C           6.8724    9.2734   -0.8972 C.2     1  LIG1        0.3158
     33 C           7.9843    7.2869   -0.4250 C.3     1  LIG1        0.1037
     34 H           8.8917    6.9926   -0.6891 H       1  LIG1        0.0707
     35 H           7.4149    6.4851   -0.3063 H       1  LIG1        0.0707
     36 C           7.2283   10.3938    1.3111 C.3     1  LIG1       -0.0060
     37 H           6.7575   11.1796    1.0618 H       1  LIG1        0.0325
     38 C           7.4112    7.3713    2.0918 C.2     1  LIG1       -0.0579
     39 C           7.0446    8.0037    3.2190 C.2     1  LIG1       -0.0190
     40 H           6.6613    7.4543    3.8932 H       1  LIG1        0.0652
     41 C           7.0841    5.9186    1.9658 C.3     1  LIG1       -0.0427
     42 H           6.8926    5.5486    2.8531 H       1  LIG1        0.0275
     43 H           7.8461    5.4452    1.5717 H       1  LIG1        0.0275
     44 H           6.2992    5.8089    1.3897 H       1  LIG1        0.0275
     45 C          12.3386    8.5001    2.7959 C.3     1  LIG1       -0.0490
     46 H          11.8979    8.0560    3.5493 H       1  LIG1        0.0242
     47 H          12.0348    9.4308    2.7418 H       1  LIG1        0.0242
     48 H          13.3094    8.4811    2.9282 H       1  LIG1        0.0242
     49 C          11.5161    9.7996    0.0735 C.3     1  LIG1       -0.0472
     50 H          11.7910   10.3045   -0.7324 H       1  LIG1        0.0269
     51 H          11.6911   10.3660    0.8668 H       1  LIG1        0.0269
     52 C          10.0282    9.4786   -0.0068 C.3     1  LIG1       -0.0393
     53 H           9.8564    8.9638   -0.8350 H       1  LIG1        0.0275
     54 H           9.5215   10.3267   -0.0708 H       1  LIG1        0.0275
     55 C          14.6212    7.4121    0.2256 C.2     1  LIG1        0.1617
     56 C          13.9591    6.3389    0.9828 C.2     1  LIG1       -0.0217
     57 H          14.4136    5.5120    1.0863 H       1  LIG1        0.0650
     58 C          12.7503    6.4727    1.5305 C.2     1  LIG1       -0.0675
     59 H          12.3591    5.7239    1.9646 H       1  LIG1        0.0583
     60 C          14.0358    8.9511   -1.6091 C.3     1  LIG1       -0.0525
     61 H          14.9889    9.0671   -1.8057 H       1  LIG1        0.0239
     62 H          13.5488    9.7630   -1.8635 H       1  LIG1        0.0239
     63 H          13.6885    8.1881   -2.1178 H       1  LIG1        0.0239
     64 C           2.4429    9.6832    7.7854 C.2     2  LIG2        0.1617
     65 C           3.2045    8.4526    7.2706 C.3     2  LIG2        0.0314
     66 C           4.7194    8.5756    7.5818 C.3     2  LIG2       -0.0133
     67 H           5.0587    9.2895    6.9701 H       2  LIG2        0.0322
     68 C           5.5413    7.3399    7.2536 C.3     2  LIG2       -0.0472
     69 H           5.2654    6.9835    6.3721 H       2  LIG2        0.0269
     70 H           5.3748    6.6408    7.9351 H       2  LIG2        0.0269
     71 C           7.0297    7.6804    7.2236 C.3     2  LIG2       -0.0390
     72 H           7.2003    8.2954    6.4674 H       2  LIG2        0.0275
     73 H           7.5436    6.8500    7.0582 H       2  LIG2        0.0275
     74 C           7.5546    8.3421    8.5376 C.3     2  LIG2        0.0476
     75 C           8.9712    9.0187    8.2662 C.3     2  LIG2        0.0697
     76 C           9.6113    9.6283    9.5278 C.2     2  LIG2       -0.0545
     77 C          10.0008    8.8802   10.5741 C.2     2  LIG2       -0.0184
     78 H          10.4034    9.3575   11.2894 H       2  LIG2        0.0652
     79 C           9.8922    7.4326   10.7658 C.2     2  LIG2        0.1657
     80 C           7.7252    7.2370    9.6079 C.3     2  LIG2       -0.0234
     81 H           7.0791    6.5126    9.4158 H       2  LIG2        0.0287
     82 H           7.4915    7.6178   10.4920 H       2  LIG2        0.0287
     83 C           9.1676    6.6075    9.7007 C.3     2  LIG2        0.0499
     84 C           9.0739    5.1547   10.1304 C.3     2  LIG2       -0.0489
     85 H           8.5948    4.6421    9.4461 H       2  LIG2        0.0242
     86 H           8.5899    5.0960   10.9803 H       2  LIG2        0.0242
     87 H           9.9754    4.7886   10.2421 H       2  LIG2        0.0242
     88 C           9.8886    6.7385    8.3821 C.2     2  LIG2       -0.0598
     89 H          10.3873    6.0129    8.0232 H       2  LIG2        0.0587
     90 C           9.8070    7.8906    7.7391 C.2     2  LIG2        0.0479
     91 C          10.1733    8.1520    6.3332 C.2     2  LIG2        0.3359
     92 C           8.9439    9.9885    7.0603 C.3     2  LIG2        0.1072
     93 H           8.0092   10.2090    6.8184 H       2  LIG2        0.0710
     94 H           9.4161   10.8290    7.2865 H       2  LIG2        0.0710
     95 C           5.0532    9.0701    9.0172 C.3     2  LIG2        0.0488
     96 C           6.5567    9.4224    8.9902 C.2     2  LIG2        0.1506
     97 C           4.7418    8.0687   10.1585 C.3     2  LIG2       -0.0490
     98 H           5.1737    8.3713   10.9846 H       2  LIG2        0.0242
     99 H           5.0819    7.1823    9.9171 H       2  LIG2        0.0242
    100 H           3.7729    8.0207   10.2956 H       2  LIG2        0.0242
    101 C           4.2686   10.3134    9.3145 C.2     2  LIG2       -0.0675
    102 H           4.6329   10.9441    9.9243 H       2  LIG2        0.0583
    103 C           3.0864   10.5732    8.7646 C.2     2  LIG2       -0.0217
    104 H           2.6364   11.3705    9.0157 H       2  LIG2        0.0650
    105 C           2.5260    7.2057    7.8658 C.3     2  LIG2       -0.0525
    106 H           2.4640    7.3013    8.8394 H       2  LIG2        0.0239
    107 H           3.0561    6.4106    7.6476 H       2  LIG2        0.0239
    108 H           1.6259    7.1116    7.4887 H       2  LIG2        0.0239
    109 C           3.0250    8.4088    5.7428 C.3     2  LIG2       -0.0525
    110 H           2.0747    8.4981    5.5226 H       2  LIG2        0.0239
    111 H           3.3605    7.5551    5.3984 H       2  LIG2        0.0239
    112 H           3.5254    9.1456    5.3334 H       2  LIG2        0.0239
    113 C           9.9369   11.0893    9.5542 C.3     2  LIG2       -0.0424
    114 H          10.2542   11.3365   10.4472 H       2  LIG2        0.0275
    115 H           9.1336   11.6073    9.3378 H       2  LIG2        0.0275
    116 H          10.6352   11.2803    8.8943 H       2  LIG2        0.0275
@<TRIPOS>BOND
     1    63    60    1
     2    62    60    1
     3    61    60    1
     4    60    24    1
     5     2    32    2
     6     3    32    1
     7     3    33    1
     8    32    31    1
     9    53    52    1
    10    50    49    1
    11    34    33    1
    12    23    22    1
    13    33    35    1
    14    33    30    1
    15     5    55    2
    16    24    22    1
    17    24    55    1
    18    24    25    1
    19    54    52    1
    20    52    49    1
    21    52    19    1
    22    49    22    1
    23    49    51    1
    24    22    21    1
    25    55    56    1
    26    28    25    1
    27    31    30    1
    28    31    36    1
    29    27    25    1
    30    25    26    1
    31    30    19    1
    32    30    38    1
    33    56    57    1
    34    56    58    2
    35    37    36    1
    36    19    20    1
    37    19    16    1
    38    36    15    1
    39    44    41    1
    40    21    20    1
    41    21    58    1
    42    21    45    1
    43    20     4    2
    44    58    59    1
    45    43    41    1
    46    41    38    1
    47    41    42    1
    48    38    39    2
    49    17    16    1
    50    16    15    1
    51    16    18    1
    52    12    11    1
    53    15    11    1
    54    15    29    1
    55    47    45    1
    56    45    48    1
    57    45    46    1
    58    39    29    1
    59    39    40    1
    60    11    14    1
    61    11    13    1
    62    29     1    2
    63   112   109    1
    64   111   109    1
    65   110   109    1
    66     8    91    2
    67   109    65    1
    68     9    91    1
    69     9    92    1
    70    91    90    1
    71    69    68    1
    72    72    71    1
    73    93    92    1
    74    67    66    1
    75    73    71    1
    76    92    94    1
    77    92    75    1
    78    71    68    1
    79    71    74    1
    80    68    66    1
    81    68    70    1
    82    65    66    1
    83    65    64    1
    84    65   105    1
    85     6    64    2
    86   108   105    1
    87    66    95    1
    88   107   105    1
    89    90    75    1
    90    90    88    2
    91    64   103    1
    92   105   106    1
    93    89    88    1
    94    75    74    1
    95    75    76    1
    96    88    83    1
    97    74    96    1
    98    74    80    1
    99   103   104    1
   100   103   101    2
   101   116   113    1
   102    96    95    1
   103    96    10    2
   104    95   101    1
   105    95    97    1
   106   101   102    1
   107   115   113    1
   108    81    80    1
   109    85    84    1
   110    76   113    1
   111    76    77    2
   112   113   114    1
   113    80    83    1
   114    80    82    1
   115    83    84    1
   116    83    79    1
   117    99    97    1
   118    84    87    1
   119    84    86    1
   120    97   100    1
   121    97    98    1
   122    77    79    1
   123    77    78    1
   124    79     7    2
