@<TRIPOS>MOLECULE
C21 H23 N O4
 49 52 0 0 0
SMALL
GASTEIGER

@<TRIPOS>ATOM
      1 O           1.1021    9.2495    7.9312 O.2     1  LIG1       -0.4387
      2 O           0.8749    9.4900   10.9257 O.3     1  LIG1       -0.4915
      3 O           0.1702    7.2407    7.3186 O.3     1  LIG1       -0.3197
      4 O           2.6756   10.8874    6.6483 O.2     1  LIG1       -0.3863
      5 N           2.3134    9.6732    5.9845 N.2     1  LIG1       -0.0473
      6 C           0.2776    8.1368    8.4122 C.3     1  LIG1        0.2452
      7 C           0.9823    7.4777    9.5805 C.ar    1  LIG1        0.0650
      8 C           1.5404    8.9631    6.6944 C.2     1  LIG1        0.2611
      9 C           1.2544    8.1672   10.7597 C.ar    1  LIG1        0.1299
     10 C           1.0170    7.6282    6.2221 C.3     1  LIG1        0.1465
     11 C           1.3691    6.1363    9.5199 C.ar    1  LIG1       -0.0489
     12 H           1.1738    5.6389    8.7601 H       1  LIG1        0.0624
     13 C          -1.1088    8.6668    8.7271 C.3     1  LIG1        0.0209
     14 H          -1.6210    7.9538    9.1397 H       1  LIG1        0.0333
     15 H          -1.5466    8.8907    7.8904 H       1  LIG1        0.0333
     16 C           1.9356    7.5761   11.7996 C.ar    1  LIG1       -0.0194
     17 H           2.1259    8.0640   12.5681 H       1  LIG1        0.0654
     18 C          -0.5502    9.6859   10.9942 C.3     1  LIG1        0.0898
     19 H          -0.7383   10.4587   11.5501 H       1  LIG1        0.0696
     20 H          -0.9572    8.9116   11.4138 H       1  LIG1        0.0696
     21 C           3.9764   12.8602    6.3306 C.ar    1  LIG1       -0.0078
     22 C          -1.1654    9.8921    9.6421 C.3     1  LIG1       -0.0123
     23 H          -0.7103   10.6278    9.2035 H       1  LIG1        0.0300
     24 H          -2.0934   10.1489    9.7591 H       1  LIG1        0.0300
     25 C           2.3369    6.2568   11.6990 C.ar    1  LIG1       -0.0583
     26 H           2.8082    5.8575   12.3938 H       1  LIG1        0.0619
     27 C           0.1668    7.7485    4.9793 C.3     1  LIG1       -0.0271
     28 H          -0.1998    6.8895    4.7570 H       1  LIG1        0.0262
     29 H           0.7070    8.0640    4.2515 H       1  LIG1        0.0262
     30 H          -0.5480    8.3700    5.1384 H       1  LIG1        0.0262
     31 C           2.0352    5.5387   10.5678 C.ar    1  LIG1       -0.0611
     32 H           2.2826    4.6449   10.5079 H       1  LIG1        0.0618
     33 C           3.7715   11.4375    5.9165 C.3     1  LIG1        0.1430
     34 H           3.5863   11.3956    4.9658 H       1  LIG1        0.0775
     35 H           4.5753   10.9243    6.0925 H       1  LIG1        0.0775
     36 C           2.1472    6.6293    6.0459 C.3     1  LIG1       -0.0271
     37 H           2.6868    6.6139    6.8396 H       1  LIG1        0.0262
     38 H           2.6884    6.8876    5.2954 H       1  LIG1        0.0262
     39 H           1.7811    5.7548    5.8907 H       1  LIG1        0.0262
     40 C           5.0981   13.2454    7.0312 C.ar    1  LIG1       -0.0553
     41 H           5.7368   12.6139    7.2727 H       1  LIG1        0.0621
     42 C           3.0450   13.8207    6.0045 C.ar    1  LIG1       -0.0553
     43 H           2.2781   13.5756    5.5369 H       1  LIG1        0.0621
     44 C           4.3273   15.5141    7.0415 C.ar    1  LIG1       -0.0617
     45 H           4.4376   16.4055    7.2848 H       1  LIG1        0.0618
     46 C           5.2733   14.5866    7.3797 C.ar    1  LIG1       -0.0614
     47 H           6.0362   14.8489    7.8404 H       1  LIG1        0.0618
     48 C           3.2303   15.1256    6.3531 C.ar    1  LIG1       -0.0614
     49 H           2.5916   15.7593    6.1150 H       1  LIG1        0.0618
@<TRIPOS>BOND
     1    29    27    1
     2    28    27    1
     3    34    33    1
     4    27    30    1
     5    27    10    1
     6    38    36    1
     7    43    42    1
     8    39    36    1
     9    33    35    1
    10    33    21    1
    11    33     4    1
    12     5     4    1
    13     5     8    2
    14    42    21   ar
    15    42    48   ar
    16    36    10    1
    17    36    37    1
    18    49    48    1
    19    10     8    1
    20    10     3    1
    21    21    40   ar
    22    48    44   ar
    23     8     1    1
    24    40    41    1
    25    40    46   ar
    26    44    45    1
    27    44    46   ar
    28     3     6    1
    29    46    47    1
    30    15    13    1
    31     1     6    1
    32     6    13    1
    33     6     7    1
    34    13    14    1
    35    13    22    1
    36    12    11    1
    37    23    22    1
    38    11     7   ar
    39    11    31   ar
    40     7     9   ar
    41    22    24    1
    42    22    18    1
    43    32    31    1
    44    31    25   ar
    45     9     2    1
    46     9    16   ar
    47     2    18    1
    48    18    20    1
    49    18    19    1
    50    25    16   ar
    51    25    26    1
    52    16    17    1
