@<TRIPOS>MOLECULE
Ethyl (+-)-2-(((2R*,6R*)-4,4-dimethyl-2-oxido-6-phenyl -1,3,2-dioxaphosphinan-2-yl)oxy)-acrylate
 44 45 0 0 0
SMALL
GASTEIGER

@<TRIPOS>ATOM
      1 P           2.3662    5.9918    7.6045 P.3     1  LIG1        0.5344
      2 O           2.9954    7.2082    8.3645 O.3     1  LIG1       -0.2689
      3 O           3.2770    5.6931    6.3830 O.3     1  LIG1       -0.2708
      4 O           0.9652    6.1967    7.2673 O.2     1  LIG1       -0.2152
      5 O           2.6285    4.7239    8.5532 O.2     1  LIG1       -0.3971
      6 O           4.0902    4.9201   10.8324 O.2     1  LIG1       -0.2415
      7 O           2.2500    4.5789   12.0861 O.3     1  LIG1       -0.4593
      8 C           4.4664    7.2310    8.5230 C.3     1  LIG1        0.0986
      9 H           4.7548    6.4292    9.0458 H       1  LIG1        0.0653
     10 C           5.0948    7.1828    7.1422 C.3     1  LIG1        0.0075
     11 H           6.0782    7.2448    7.2364 H       1  LIG1        0.0321
     12 H           4.7924    7.9715    6.6258 H       1  LIG1        0.0321
     13 C           4.7533    5.9162    6.3527 C.3     1  LIG1        0.0790
     14 C           4.7656    8.4733    9.3137 C.ar    1  LIG1       -0.0182
     15 C           5.3539    8.3706   10.5685 C.ar    1  LIG1       -0.0561
     16 H           5.6003    7.5177   10.9074 H       1  LIG1        0.0621
     17 C           5.5836    9.5131   11.3327 C.ar    1  LIG1       -0.0614
     18 H           5.9915    9.4397   12.1881 H       1  LIG1        0.0618
     19 C           5.2172   10.7526   10.8442 C.ar    1  LIG1       -0.0617
     20 H           5.3682   11.5315   11.3666 H       1  LIG1        0.0618
     21 C           4.6295   10.8627    9.5924 C.ar    1  LIG1       -0.0614
     22 H           4.3774   11.7168    9.2605 H       1  LIG1        0.0618
     23 C           4.4085    9.7279    8.8228 C.ar    1  LIG1       -0.0561
     24 H           4.0143    9.8068    7.9624 H       1  LIG1        0.0621
     25 C           5.4141    4.6756    6.9196 C.3     1  LIG1       -0.0354
     26 H           5.1843    4.5875    7.8681 H       1  LIG1        0.0257
     27 H           6.3866    4.7508    6.8244 H       1  LIG1        0.0257
     28 H           5.0991    3.8857    6.4322 H       1  LIG1        0.0257
     29 C           5.0649    6.0994    4.8793 C.3     1  LIG1       -0.0354
     30 H           4.7908    5.2982    4.3858 H       1  LIG1        0.0257
     31 H           6.0281    6.2410    4.7643 H       1  LIG1        0.0257
     32 H           4.5771    6.8777    4.5372 H       1  LIG1        0.0257
     33 C           1.9687    4.6368    9.7761 C.2     1  LIG1        0.2086
     34 C           2.9055    4.7310   10.9389 C.2     1  LIG1        0.3742
     35 C           3.0351    4.7312   13.3093 C.3     1  LIG1        0.0901
     36 H           3.9191    4.3031   13.1884 H       1  LIG1        0.0695
     37 H           2.5727    4.2752   14.0559 H       1  LIG1        0.0695
     38 C           3.2247    6.1807   13.6507 C.3     1  LIG1       -0.0306
     39 H           3.7401    6.6184   12.9414 H       1  LIG1        0.0262
     40 H           3.7079    6.2560   14.5002 H       1  LIG1        0.0262
     41 H           2.3492    6.6137   13.7332 H       1  LIG1        0.0262
     42 C           0.6669    4.4516    9.8760 C.2     1  LIG1       -0.0490
     43 H           0.1372    4.3713    9.0918 H       1  LIG1        0.0573
     44 H           0.2588    4.3982   10.7324 H       1  LIG1        0.0573
@<TRIPOS>BOND
     1    30    29    1
     2    32    29    1
     3    31    29    1
     4    29    13    1
     5    13     3    1
     6    13    25    1
     7    13    10    1
     8     3     1    1
     9    28    25    1
    10    12    10    1
    11    27    25    1
    12    25    26    1
    13    10    11    1
    14    10     8    1
    15     4     1    2
    16     1     2    1
    17     1     5    1
    18    24    23    1
    19     2     8    1
    20     8     9    1
    21     8    14    1
    22     5    33    1
    23    23    14   ar
    24    23    21   ar
    25    43    42    1
    26    22    21    1
    27    14    15   ar
    28    21    19   ar
    29    33    42    2
    30    33    34    1
    31    42    44    1
    32    15    16    1
    33    15    17   ar
    34     6    34    2
    35    19    17   ar
    36    19    20    1
    37    34     7    1
    38    17    18    1
    39     7    35    1
    40    39    38    1
    41    36    35    1
    42    35    38    1
    43    35    37    1
    44    38    41    1
    45    38    40    1
