@<TRIPOS>MOLECULE
C27 H22 N2 O3
 54 58 0 0 0
SMALL
GASTEIGER

@<TRIPOS>ATOM
      1 O           3.6449    0.3886    4.8271 O.2     1  LIG1       -0.4593
      2 O           5.0766    4.7929   -1.0396 O.3     1  LIG1       -0.4951
      3 N           8.4227    0.0264    1.2662 N.ar    1  LIG1       -0.2430
      4 O           1.0483    5.6500    7.2723 O.3     1  LIG1       -0.4951
      5 N           7.2541   -1.2660    3.4682 N.ar    1  LIG1       -0.2429
      6 C           6.6596    1.6253    1.1300 C.ar    1  LIG1        0.0027
      7 C           7.3020    0.4632    1.8000 C.ar    1  LIG1        0.0977
      8 C           5.2516    1.6971    4.0310 C.ar    1  LIG1       -0.0063
      9 H           5.7619    2.4464    3.8239 H       1  LIG1        0.0662
     10 C           4.1170    1.6765    4.7590 C.ar    1  LIG1        0.1358
     11 C           9.0011   -1.0842    1.8118 C.ar    1  LIG1        0.0899
     12 C           3.3283    2.6853    5.4604 C.ar    1  LIG1        0.0175
     13 C           5.5243    0.3460    3.6372 C.ar    1  LIG1        0.0437
     14 C           6.7159   -0.1845    2.9477 C.ar    1  LIG1        0.1009
     15 C           8.4011   -1.7393    2.9076 C.ar    1  LIG1        0.0899
     16 C           5.3375    1.5776    0.7154 C.ar    1  LIG1       -0.0490
     17 H           4.8165    0.8411    0.9419 H       1  LIG1        0.0625
     18 C           3.5410    4.0403    5.2299 C.ar    1  LIG1       -0.0476
     19 H           4.2148    4.3017    4.6448 H       1  LIG1        0.0626
     20 C           7.4047    2.7579    0.8232 C.ar    1  LIG1       -0.0490
     21 H           8.2919    2.8131    1.0973 H       1  LIG1        0.0625
     22 C           5.5345    3.7170   -0.3325 C.ar    1  LIG1        0.1201
     23 C           4.7748    2.6029   -0.0282 C.ar    1  LIG1       -0.0193
     24 H           3.8936    2.5420   -0.3202 H       1  LIG1        0.0654
     25 C           4.5191   -0.4095    4.1433 C.ar    1  LIG1        0.1119
     26 C          10.2003   -1.5987    1.2755 C.ar    1  LIG1       -0.0342
     27 H          10.6130   -1.1716    0.5601 H       1  LIG1        0.0639
     28 C           2.3401    2.3308    6.3682 C.ar    1  LIG1       -0.0476
     29 H           2.1880    1.4313    6.5494 H       1  LIG1        0.0626
     30 C           9.0072   -2.8947    3.4427 C.ar    1  LIG1       -0.0342
     31 H           8.6247   -3.3221    4.1743 H       1  LIG1        0.0639
     32 C           1.7753    4.6259    6.7386 C.ar    1  LIG1        0.1201
     33 C           2.7768    5.0032    5.8489 C.ar    1  LIG1       -0.0193
     34 H           2.9288    5.9033    5.6732 H       1  LIG1        0.0654
     35 C           6.8443    3.7988    0.1178 C.ar    1  LIG1       -0.0193
     36 H           7.3466    4.5618   -0.0584 H       1  LIG1        0.0654
     37 C           1.5767    3.2919    7.0099 C.ar    1  LIG1       -0.0193
     38 H           0.9288    3.0355    7.6248 H       1  LIG1        0.0654
     39 C          10.1475   -3.3846    2.8920 C.ar    1  LIG1       -0.0596
     40 H          10.5312   -4.1612    3.2325 H       1  LIG1        0.0618
     41 C          10.7512   -2.7223    1.8094 C.ar    1  LIG1       -0.0596
     42 H          11.5414   -3.0579    1.4519 H       1  LIG1        0.0618
     43 C           3.8736    4.6267   -1.7816 C.3     1  LIG1        0.0788
     44 H           3.9892    3.9214   -2.4230 H       1  LIG1        0.0660
     45 H           3.6648    5.4439   -2.2395 H       1  LIG1        0.0660
     46 H           3.1582    4.4022   -1.1839 H       1  LIG1        0.0660
     47 C           4.1728   -1.8517    4.0867 C.3     1  LIG1       -0.0057
     48 H           4.2916   -2.2434    4.9556 H       1  LIG1        0.0308
     49 H           4.7449   -2.2934    3.4557 H       1  LIG1        0.0308
     50 H           3.2579   -1.9513    3.8134 H       1  LIG1        0.0308
     51 C           0.0406    5.3151    8.2203 C.3     1  LIG1        0.0788
     52 H          -0.6314    4.7763    7.7959 H       1  LIG1        0.0660
     53 H          -0.3604    6.1189    8.5583 H       1  LIG1        0.0660
     54 H           0.4342    4.8240    8.9453 H       1  LIG1        0.0660
@<TRIPOS>BOND
     1    44    43    1
     2    45    43    1
     3    43    46    1
     4    43     2    1
     5     2    22    1
     6    22    23   ar
     7    22    35   ar
     8    24    23    1
     9    36    35    1
    10    23    16   ar
    11    35    20   ar
    12    27    26    1
    13    16    17    1
    14    16     6   ar
    15    20    21    1
    16    20     6   ar
    17     6     7    1
    18     3     7   ar
    19     3    11   ar
    20    26    41   ar
    21    26    11   ar
    22    42    41    1
    23     7    14   ar
    24    41    39   ar
    25    11    15   ar
    26    39    40    1
    27    39    30   ar
    28    15    30   ar
    29    15     5   ar
    30    14     5   ar
    31    14    13    1
    32    30    31    1
    33    49    47    1
    34    13     8   ar
    35    13    25   ar
    36    50    47    1
    37     9     8    1
    38     8    10   ar
    39    47    25    1
    40    47    48    1
    41    25     1   ar
    42    19    18    1
    43    10     1   ar
    44    10    12    1
    45    18    12   ar
    46    18    33   ar
    47    12    28   ar
    48    34    33    1
    49    33    32   ar
    50    28    29    1
    51    28    37   ar
    52    32    37   ar
    53    32     4    1
    54    37    38    1
    55     4    51    1
    56    52    51    1
    57    51    53    1
    58    51    54    1
