@<TRIPOS>MOLECULE
4032022.cif
 120 125 0 0 0
SMALL
GASTEIGER

@<TRIPOS>ATOM
      1 C          -6.4792    0.5173   10.6042 C.ar    1  LIG1        0.0333
      2 C          -6.2381    1.5866    9.7267 C.ar    1  LIG1        0.1299
      3 C          -5.4238    2.6620   10.1030 C.ar    1  LIG1       -0.0006
      4 C          -4.8224    2.6250   11.3548 C.ar    1  LIG1       -0.0478
      5 H          -4.2511    3.3411   11.6057 H       1  LIG1        0.0625
      6 C          -5.0220    1.5788   12.2598 C.ar    1  LIG1       -0.0006
      7 C          -5.8854    0.5496   11.8679 C.ar    1  LIG1        0.1299
      8 C          -7.3204   -0.6592   10.1862 C.3     1  LIG1       -0.0327
      9 H          -6.9964   -1.4684   10.6342 H       1  LIG1        0.0280
     10 H          -7.2589   -0.7760    9.2149 H       1  LIG1        0.0280
     11 H          -8.2544   -0.4981   10.4367 H       1  LIG1        0.0280
     12 C          -7.9923    2.2063    8.2589 C.3     1  LIG1        0.0788
     13 H          -8.6852    1.7629    8.7906 H       1  LIG1        0.0660
     14 H          -8.2431    2.1838    7.3122 H       1  LIG1        0.0660
     15 H          -7.9022    3.1373    8.5512 H       1  LIG1        0.0660
     16 C          -7.0432   -0.2784   13.7506 C.3     1  LIG1        0.0788
     17 H          -6.7381    0.4722   14.3012 H       1  LIG1        0.0660
     18 H          -7.1345   -1.0778   14.3089 H       1  LIG1        0.0660
     19 H          -7.9096   -0.0588   13.3498 H       1  LIG1        0.0660
     20 C          -4.2741    1.5349   13.5796 C.3     1  LIG1        0.0045
     21 H          -4.6925    2.1689   14.2141 H       1  LIG1        0.0364
     22 H          -4.3429    0.6257   13.9654 H       1  LIG1        0.0364
     23 C          -0.5682    1.2461   12.6853 C.ar    1  LIG1        0.0333
     24 C          -1.9091    0.9318   12.9352 C.ar    1  LIG1        0.1299
     25 C          -2.8165    1.8944   13.4002 C.ar    1  LIG1       -0.0006
     26 C          -2.3478    3.1855   13.6234 C.ar    1  LIG1       -0.0478
     27 H          -2.9545    3.8421   13.9452 H       1  LIG1        0.0625
     28 C          -1.0182    3.5538   13.3926 C.ar    1  LIG1       -0.0006
     29 C          -0.1471    2.5665   12.9209 C.ar    1  LIG1        0.1299
     30 C           0.4065    0.1869   12.2374 C.3     1  LIG1       -0.0327
     31 H           0.1133   -0.6873   12.5679 H       1  LIG1        0.0280
     32 H           1.2960    0.3901   12.5944 H       1  LIG1        0.0280
     33 H           0.4434    0.1697   11.2575 H       1  LIG1        0.0280
     34 C          -0.5603    4.9755   13.6738 C.3     1  LIG1        0.0045
     35 H          -0.5363    5.1140   14.6540 H       1  LIG1        0.0364
     36 H           0.3626    5.0856   13.3327 H       1  LIG1        0.0364
     37 C          -2.1681    7.3099   11.0801 C.ar    1  LIG1        0.0333
     38 C          -2.9884    8.0866   11.9174 C.ar    1  LIG1        0.1299
     39 C          -3.0580    7.8690   13.2932 C.ar    1  LIG1       -0.0006
     40 C          -2.2636    6.8552   13.8403 C.ar    1  LIG1       -0.0478
     41 H          -2.2830    6.7145   14.7799 H       1  LIG1        0.0625
     42 C          -1.4422    6.0413   13.0517 C.ar    1  LIG1       -0.0006
     43 C          -1.4311    6.2776   11.6771 C.ar    1  LIG1        0.1299
     44 C          -2.0333    7.6296    9.6129 C.3     1  LIG1       -0.0327
     45 H          -1.2214    7.2086    9.2600 H       1  LIG1        0.0280
     46 H          -1.9762    8.6009    9.4947 H       1  LIG1        0.0280
     47 H          -2.8151    7.2875    9.1310 H       1  LIG1        0.0280
     48 C          -4.7134    8.8700   10.4489 C.3     1  LIG1        0.0788
     49 H          -4.8473    7.9001   10.4010 H       1  LIG1        0.0660
     50 H          -4.4407    9.2050    9.5693 H       1  LIG1        0.0660
     51 H          -5.5509    9.3036   10.7181 H       1  LIG1        0.0660
     52 C          -1.2966    4.5050   10.1346 C.3     1  LIG1        0.0788
     53 H          -1.7799    3.9121   10.7476 H       1  LIG1        0.0660
     54 H          -0.6581    3.9810    9.6067 H       1  LIG1        0.0660
     55 H          -1.9351    4.9436    9.5336 H       1  LIG1        0.0660
     56 C          -3.9055    8.7450   14.1840 C.3     1  LIG1        0.0045
     57 H          -3.6936    9.6900   13.9778 H       1  LIG1        0.0364
     58 H          -3.6374    8.5811   15.1219 H       1  LIG1        0.0364
     59 C          -7.6019    9.1762   14.9938 C.ar    1  LIG1        0.0333
     60 C          -6.2105    9.3079   14.9708 C.ar    1  LIG1        0.1299
     61 C          -5.4114    8.5665   14.0845 C.ar    1  LIG1       -0.0006
     62 C          -6.0448    7.6891   13.2135 C.ar    1  LIG1       -0.0478
     63 H          -5.5158    7.1741   12.6161 H       1  LIG1        0.0625
     64 C          -7.4378    7.5387   13.1869 C.ar    1  LIG1       -0.0006
     65 C          -8.1897    8.2876   14.0958 C.ar    1  LIG1        0.1299
     66 C          -8.4333    9.9338   15.9935 C.3     1  LIG1       -0.0327
     67 H          -8.7392   10.7746   15.5929 H       1  LIG1        0.0280
     68 H          -7.8935   10.1278   16.7883 H       1  LIG1        0.0280
     69 H          -9.2091    9.3925   16.2505 H       1  LIG1        0.0280
     70 C         -10.3300    9.0598   13.4686 C.3     1  LIG1        0.0788
     71 H         -10.1246    9.9455   13.8348 H       1  LIG1        0.0660
     72 H         -11.2853    8.8727   13.5830 H       1  LIG1        0.0660
     73 H         -10.1055    9.0413   12.5151 H       1  LIG1        0.0660
     74 C          -5.6181   11.5053   15.6435 C.3     1  LIG1        0.0788
     75 H          -4.9308   11.7284   14.9805 H       1  LIG1        0.0660
     76 H          -5.4475   12.0017   16.4712 H       1  LIG1        0.0660
     77 H          -6.5002   11.7483   15.2929 H       1  LIG1        0.0660
     78 C          -8.1241    6.5328   12.2870 C.3     1  LIG1        0.0045
     79 H          -8.1374    5.6560   12.7467 H       1  LIG1        0.0364
     80 H          -9.0633    6.8158   12.1560 H       1  LIG1        0.0364
     81 C          -7.1129    7.0988    8.6297 C.ar    1  LIG1        0.0333
     82 C          -7.6929    7.2665    9.8919 C.ar    1  LIG1        0.1299
     83 C          -7.4821    6.3564   10.9334 C.ar    1  LIG1       -0.0006
     84 C          -6.6551    5.2613   10.6794 C.ar    1  LIG1       -0.0478
     85 H          -6.4881    4.6447   11.3819 H       1  LIG1        0.0625
     86 C          -6.0632    5.0357    9.4346 C.ar    1  LIG1       -0.0006
     87 C          -6.3166    5.9645    8.4167 C.ar    1  LIG1        0.1299
     88 C          -7.3152    8.1105    7.5328 C.3     1  LIG1       -0.0327
     89 H          -7.9965    7.7836    6.9081 H       1  LIG1        0.0280
     90 H          -6.4714    8.2459    7.0542 H       1  LIG1        0.0280
     91 H          -7.6101    8.9600    7.9232 H       1  LIG1        0.0280
     92 C          -9.8263    8.2467    9.7248 C.3     1  LIG1        0.0788
     93 H          -9.8621    8.1099    8.7548 H       1  LIG1        0.0660
     94 H         -10.3293    9.0543    9.9595 H       1  LIG1        0.0660
     95 H         -10.2208    7.4734   10.1787 H       1  LIG1        0.0660
     96 C          -4.4821    6.1205    6.9247 C.3     1  LIG1        0.0788
     97 H          -4.3819    7.0781    7.1071 H       1  LIG1        0.0660
     98 H          -4.2275    5.9370    5.9972 H       1  LIG1        0.0660
     99 H          -3.9035    5.6093    7.5299 H       1  LIG1        0.0660
    100 C          -5.1765    3.8262    9.1736 C.3     1  LIG1        0.0045
    101 H          -5.3188    3.5235    8.2418 H       1  LIG1        0.0364
    102 H          -4.2298    4.1033    9.2569 H       1  LIG1        0.0364
    103 O          -6.0871   -0.5284   12.7117 O.3     1  LIG1       -0.4944
    104 O          -6.7455    1.5275    8.4383 O.3     1  LIG1       -0.4944
    105 O           1.2005    2.8623   12.7854 O.3     1  LIG1       -0.4944
    106 O          -2.3391   -0.3793   12.8498 O.3     1  LIG1       -0.4944
    107 C           1.6513    3.0504   11.4420 C.3     1  LIG1        0.0788
    108 H           1.1864    2.4221   10.8502 H       1  LIG1        0.0660
    109 H           2.6175    2.8898   11.3959 H       1  LIG1        0.0660
    110 H           1.4590    3.9691   11.1580 H       1  LIG1        0.0660
    111 C          -2.5102   -0.8999   11.5334 C.3     1  LIG1        0.0788
    112 H          -3.3572   -0.5774   11.1627 H       1  LIG1        0.0660
    113 H          -2.5207   -1.8795   11.5684 H       1  LIG1        0.0660
    114 H          -1.7696   -0.6009   10.9653 H       1  LIG1        0.0660
    115 O          -0.5920    5.4973   10.8869 O.3     1  LIG1       -0.4944
    116 O          -3.6925    9.1642   11.4095 O.3     1  LIG1       -0.4944
    117 O          -5.5826   10.1053   15.9135 O.3     1  LIG1       -0.4944
    118 O          -9.5624    8.0669   14.1588 O.3     1  LIG1       -0.4944
    119 O          -8.4582    8.3986   10.1367 O.3     1  LIG1       -0.4944
    120 O          -5.8440    5.7360    7.1294 O.3     1  LIG1       -0.4944
@<TRIPOS>BOND
     1    98    96    1
     2    89    88    1
     3    96    97    1
     4    96   120    1
     5    96    99    1
     6    90    88    1
     7   120    87    1
     8    14    12    1
     9    88    91    1
    10    88    81    1
    11   101   100    1
    12    12   104    1
    13    12    15    1
    14    12    13    1
    15    87    81   ar
    16    87    86   ar
    17   104     2    1
    18    81    82   ar
    19    93    92    1
    20    47    44    1
    21   100   102    1
    22   100    86    1
    23   100     3    1
    24    10     8    1
    25    45    44    1
    26    86    84   ar
    27    46    44    1
    28    55    52    1
    29    50    48    1
    30    54    52    1
    31    44    37    1
    32    92    94    1
    33    92   119    1
    34    92    95    1
    35     2     3   ar
    36     2     1   ar
    37    82   119    1
    38    82    83   ar
    39     3     4   ar
    40    52    53    1
    41    52   115    1
    42     8    11    1
    43     8     1    1
    44     8     9    1
    45    49    48    1
    46    48    51    1
    47    48   116    1
    48     1     7   ar
    49    84    83   ar
    50    84    85    1
    51   108   107    1
    52   115    43    1
    53    83    78    1
    54   114   111    1
    55    37    43   ar
    56    37    38   ar
    57   110   107    1
    58   112   111    1
    59    33    30    1
    60     4     5    1
    61     4     6   ar
    62   109   107    1
    63   116    38    1
    64   107   105    1
    65   111   113    1
    66   111   106    1
    67    43    42   ar
    68     7     6   ar
    69     7   103    1
    70    38    39   ar
    71    80    78    1
    72    30    31    1
    73    30    32    1
    74    30    23    1
    75     6    20    1
    76    78    79    1
    77    78    64    1
    78    73    70    1
    79    63    62    1
    80    23    29   ar
    81    23    24   ar
    82   103    16    1
    83   105    29    1
    84   106    24    1
    85    29    28   ar
    86    24    25   ar
    87    42    34    1
    88    42    40   ar
    89    64    62   ar
    90    64    65   ar
    91    62    61   ar
    92    39    40   ar
    93    39    56    1
    94    36    34    1
    95    19    16    1
    96    28    26   ar
    97    28    34    1
    98    25    20    1
    99    25    26   ar
   100    70    72    1
   101    70    71    1
   102    70   118    1
   103    20    22    1
   104    20    21    1
   105    26    27    1
   106    34    35    1
   107    16    17    1
   108    16    18    1
   109    40    41    1
   110    57    56    1
   111    61    56    1
   112    61    60   ar
   113    65   118    1
   114    65    59   ar
   115    56    58    1
   116    60    59   ar
   117    60   117    1
   118    75    74    1
   119    59    66    1
   120    77    74    1
   121    67    66    1
   122    74   117    1
   123    74    76    1
   124    66    69    1
   125    66    68    1
