@<TRIPOS>MOLECULE
C9 H12 O3
 48 50 0 0 0
SMALL
GASTEIGER

@<TRIPOS>ATOM
      1 O           6.2603    1.0793   11.9952 O.3     1  LIG1       -0.3849
      2 O           8.9692    1.2405   12.8391 O.3     1  LIG1       -0.3886
      3 O           7.6127   -0.8768   17.2058 O.2     1  LIG1       -0.2968
      4 O           3.0131    5.7662   11.9879 O.3     2  LIG2       -0.3849
      5 O           5.7110    5.0732   12.5321 O.3     2  LIG2       -0.3886
      6 O           4.7623    4.0432   17.4451 O.2     2  LIG2       -0.2968
      7 C           5.7453    1.2052   15.5773 C.2     1  LIG1       -0.0720
      8 C           5.4745    1.3599   14.2897 C.2     1  LIG1       -0.0453
      9 C           6.5827    1.6345   13.2734 C.3     1  LIG1        0.1021
     10 C           7.8926    1.0045   13.7538 C.3     1  LIG1        0.0890
     11 C           8.2813    1.5685   15.1109 C.3     1  LIG1        0.0074
     12 C           9.1845    0.6161   15.9359 C.3     1  LIG1        0.0126
     13 C           7.9116    0.1260   16.6305 C.2     1  LIG1        0.1408
     14 C           7.1236    1.3530   16.1291 C.3     1  LIG1        0.0415
     15 C           4.0657    1.3104   13.7568 C.3     1  LIG1       -0.0413
     16 C           3.0151    6.0488   15.6459 C.2     2  LIG2       -0.0720
     17 C           2.5812    6.0627   14.3901 C.2     2  LIG2       -0.0453
     18 C           3.5824    6.1313   13.2434 C.3     2  LIG2        0.1021
     19 C           4.8018    5.2735   13.6150 C.3     2  LIG2        0.0890
     20 C           5.4810    5.9054   14.8154 C.3     2  LIG2        0.0074
     21 C           6.3027    4.9078   15.6752 C.3     2  LIG2        0.0126
     22 C           5.1015    4.8279   16.6137 C.2     2  LIG2        0.1408
     23 C           4.4667    6.0748   15.9891 C.3     2  LIG2        0.0415
     24 C           1.1140    6.0053   14.0457 C.3     2  LIG2       -0.0413
     25 H           5.7964    1.6510   11.5881 H       1  LIG1        0.2103
     26 H           9.0404    0.4519   12.4132 H       1  LIG1        0.2099
     27 H           2.7582    4.9096   12.0113 H       2  LIG2        0.2103
     28 H           5.9940    5.9002   12.4533 H       2  LIG2        0.2099
     29 H           5.0381    1.0228   16.1742 H       1  LIG1        0.0579
     30 H           6.7103    2.6234   13.1625 H       1  LIG1        0.0666
     31 H           7.7436    0.0469   13.8244 H       1  LIG1        0.0625
     32 H           8.5925    2.5104   15.0442 H       1  LIG1        0.0340
     33 H           9.7905    1.1401   16.5335 H       1  LIG1        0.0346
     34 H           9.6777   -0.0348   15.4083 H       1  LIG1        0.0346
     35 H           7.1697    2.0664   16.7912 H       1  LIG1        0.0424
     36 H           3.7767    2.1767   13.3682 H       1  LIG1        0.0275
     37 H           3.4770    1.1479   14.4982 H       1  LIG1        0.0275
     38 H           3.9545    0.6048   13.0845 H       1  LIG1        0.0275
     39 H           2.4239    6.0427   16.3657 H       2  LIG2        0.0579
     40 H           3.8804    7.0976   13.1389 H       2  LIG2        0.0666
     41 H           4.4856    4.4012   13.8717 H       2  LIG2        0.0625
     42 H           5.9355    6.7178   14.5880 H       2  LIG2        0.0340
     43 H           7.0471    5.3753   16.1104 H       2  LIG2        0.0346
     44 H           6.5893    4.0936   15.2357 H       2  LIG2        0.0346
     45 H           4.7038    6.8412   16.5501 H       2  LIG2        0.0424
     46 H           0.8415    6.7300   13.4769 H       2  LIG2        0.0275
     47 H           0.6183    6.0670   14.8740 H       2  LIG2        0.0275
     48 H           0.8917    5.1807   13.6164 H       2  LIG2        0.0275
@<TRIPOS>BOND
     1    25     1    1
     2     4    27    1
     3     4    18    1
     4     1     9    1
     5    26     2    1
     6    28     5    1
     7     5    19    1
     8     2    10    1
     9    38    15    1
    10    40    18    1
    11    30     9    1
    12    18    19    1
    13    18    17    1
    14     9    10    1
    15     9     8    1
    16    36    15    1
    17    46    24    1
    18    19    41    1
    19    19    20    1
    20    48    24    1
    21    10    31    1
    22    10    11    1
    23    15     8    1
    24    15    37    1
    25    24    17    1
    26    24    47    1
    27     8     7    2
    28    17    16    2
    29    42    20    1
    30    20    21    1
    31    20    23    1
    32    32    11    1
    33    11    12    1
    34    11    14    1
    35    44    21    1
    36    34    12    1
    37     7    14    1
    38     7    29    1
    39    16    23    1
    40    16    39    1
    41    21    43    1
    42    21    22    1
    43    12    33    1
    44    12    13    1
    45    23    45    1
    46    23    22    1
    47    14    13    1
    48    14    35    1
    49    22     6    2
    50    13     3    2
