@<TRIPOS>MOLECULE
4033586.cif
 51 52 0 0 0
SMALL
GASTEIGER

@<TRIPOS>ATOM
      1 S           2.4277    1.0015   11.3230 S.O2    1  LIG1        0.0634
      2 F           3.4335   -1.1498   17.2569 F       1  LIG1       -0.1620
      3 F           5.5463   -0.7416   17.1401 F       1  LIG1       -0.1620
      4 F           4.3955   -0.0250   18.8015 F       1  LIG1       -0.1620
      5 O           1.1269    1.5782   11.1965 O.2     1  LIG1       -0.1528
      6 O           2.6859   -0.2844   10.7531 O.2     1  LIG1       -0.1528
      7 O           5.8661   -0.0060    9.3250 O.2     1  LIG1       -0.1261
      8 O           5.4229    0.1281   11.4478 O.2     1  LIG1       -0.1261
      9 O           5.9944    4.4330   12.6586 O.3     1  LIG1       -0.4649
     10 O           4.1484    4.9856   13.8157 O.2     1  LIG1       -0.2508
     11 O           3.9302    2.1035   17.4321 O.2     1  LIG1       -0.2658
     12 N           2.8821    0.9610   12.8715 N.3     1  LIG1       -0.1705
     13 N           4.0036    1.0550   15.4112 N.am    1  LIG1       -0.2878
     14 N           5.3986    0.5658   10.3049 N.pl3   1  LIG1        0.0584
     15 C           2.5957    2.1187   13.7271 C.3     1  LIG1        0.0400
     16 H           1.7638    1.9624   14.2401 H       1  LIG1        0.0462
     17 H           2.4710    2.9281   13.1706 H       1  LIG1        0.0462
     18 C           3.7687    2.3195   14.6832 C.3     1  LIG1        0.0507
     19 H           3.5228    3.0279   15.3436 H       1  LIG1        0.0519
     20 C           4.2437   -0.1192   14.5532 C.3     1  LIG1        0.0323
     21 H           4.3430   -0.9270   15.1161 H       1  LIG1        0.0480
     22 H           5.0853    0.0069   14.0466 H       1  LIG1        0.0480
     23 C           3.0865   -0.3153   13.5787 C.3     1  LIG1        0.0449
     24 H           3.3594   -1.0036   12.9058 H       1  LIG1        0.0493
     25 C           3.5212    2.1911   10.5636 C.ar    1  LIG1        0.1355
     26 C           4.7990    1.8880   10.0937 C.ar    1  LIG1        0.1524
     27 C           5.5567    2.8171    9.4075 C.ar    1  LIG1       -0.0295
     28 H           6.4114    2.5833    9.0656 H       1  LIG1        0.0641
     29 C           5.0522    4.0947    9.2249 C.ar    1  LIG1       -0.0595
     30 H           5.5733    4.7478    8.7736 H       1  LIG1        0.0618
     31 C           3.7971    4.4252    9.6975 C.ar    1  LIG1       -0.0598
     32 H           3.4600    5.3059    9.5783 H       1  LIG1        0.0618
     33 C           3.0293    3.4656   10.3460 C.ar    1  LIG1       -0.0331
     34 H           2.1553    3.6875   10.6445 H       1  LIG1        0.0638
     35 C           1.8176   -0.8047   14.2693 C.3     1  LIG1       -0.0464
     36 H           1.0739   -0.7946   13.6324 H       1  LIG1        0.0246
     37 H           1.6087   -0.2158   15.0245 H       1  LIG1        0.0246
     38 H           1.9547   -1.7182   14.5967 H       1  LIG1        0.0246
     39 C           5.0453    2.7468   13.9661 C.3     1  LIG1        0.0647
     40 H           5.8145    2.6426   14.5831 H       1  LIG1        0.0396
     41 H           5.1963    2.1525   13.1876 H       1  LIG1        0.0396
     42 C           4.9805    4.1777   13.4915 C.2     1  LIG1        0.3089
     43 C           6.0950    5.8054   12.1870 C.3     1  LIG1        0.0896
     44 H           6.1267    6.4316   12.9533 H       1  LIG1        0.0694
     45 H           5.3127    6.0343   11.6257 H       1  LIG1        0.0694
     46 C           7.3605    5.8990   11.3836 C.3     1  LIG1       -0.0306
     47 H           7.4735    6.8168   11.0587 H       1  LIG1        0.0262
     48 H           7.3095    5.2861   10.6207 H       1  LIG1        0.0262
     49 H           8.1242    5.6559   11.9483 H       1  LIG1        0.0262
     50 C           4.0780    1.1053   16.7510 C.2     1  LIG1        0.3202
     51 C           4.3650   -0.2285   17.4851 C.3     1  LIG1        0.4696
@<TRIPOS>BOND
     1    30    29    1
     2    28    27    1
     3    29    27   ar
     4    29    31   ar
     5     7    14    2
     6    27    26   ar
     7    32    31    1
     8    31    33   ar
     9    26    14    1
    10    26    25   ar
    11    14     8    2
    12    33    25   ar
    13    33    34    1
    14    25     1    1
    15    48    46    1
    16     6     1    2
    17    47    46    1
    18     5     1    2
    19     1    12    1
    20    46    49    1
    21    46    43    1
    22    45    43    1
    23    43     9    1
    24    43    44    1
    25     9    42    1
    26    12    23    1
    27    12    15    1
    28    24    23    1
    29    17    15    1
    30    41    39    1
    31    42    10    2
    32    42    39    1
    33    23    35    1
    34    23    20    1
    35    36    35    1
    36    15    16    1
    37    15    18    1
    38    39    40    1
    39    39    18    1
    40    22    20    1
    41    35    38    1
    42    35    37    1
    43    20    21    1
    44    20    13    1
    45    18    19    1
    46    18    13    1
    47    13    50   am
    48    50    11    2
    49    50    51    1
    50     3    51    1
    51     2    51    1
    52    51     4    1
