@<TRIPOS>MOLECULE
C16 H10 Br N O3
 31 34 0 0 0
SMALL
GASTEIGER

@<TRIPOS>ATOM
      1 C          10.1199    5.9953   -3.5651 C.2     1  LIG1        0.2662
      2 C           9.4116    4.8494   -2.8077 C.3     1  LIG1        0.2195
      3 C           8.3281    4.4345   -3.7594 C.ar    1  LIG1        0.0263
      4 C           7.2963    3.5233   -3.6494 C.ar    1  LIG1       -0.0525
      5 H           7.1660    3.0252   -2.8510 H       1  LIG1        0.0622
      6 C           6.4497    3.3563   -4.7462 C.ar    1  LIG1       -0.0612
      7 H           5.7300    2.7387   -4.6919 H       1  LIG1        0.0618
      8 C           6.6432    4.0767   -5.9123 C.ar    1  LIG1       -0.0600
      9 H           6.0588    3.9346   -6.6473 H       1  LIG1        0.0618
     10 C           7.6670    4.9969   -6.0332 C.ar    1  LIG1       -0.0401
     11 H           7.7940    5.4956   -6.8318 H       1  LIG1        0.0636
     12 C           8.4988    5.1615   -4.9375 C.ar    1  LIG1        0.0410
     13 C          10.4252    3.7760   -2.4590 C.3     1  LIG1        0.0264
     14 H          10.7244    3.3171   -3.2837 H       1  LIG1        0.0361
     15 H          11.2163    4.1889   -2.0300 H       1  LIG1        0.0361
     16 C           9.8017    2.7857   -1.5259 C.ar    1  LIG1       -0.0277
     17 C          10.0540    1.4247   -1.6418 C.ar    1  LIG1       -0.0576
     18 H          10.6201    1.1016   -2.3329 H       1  LIG1        0.0621
     19 C           9.4775    0.5428   -0.7465 C.ar    1  LIG1       -0.0604
     20 H           9.6450   -0.3889   -0.8302 H       1  LIG1        0.0618
     21 C           8.6622    1.0017    0.2666 C.ar    1  LIG1       -0.0469
     22 H           8.2883    0.3890    0.8889 H       1  LIG1        0.0629
     23 C           8.3884    2.3587    0.3780 C.ar    1  LIG1        0.0321
     24 C           8.9479    3.2756   -0.5226 C.ar    1  LIG1        0.0763
     25 C           8.6946    4.7377   -0.4726 C.2     1  LIG1        0.3418
     26 N           9.5755    6.0491   -4.8014 N.am    1  LIG1       -0.2815
     27 O          11.0171    6.6750   -3.1158 O.2     1  LIG1       -0.2707
     28 O           8.9023    5.4590   -1.5963 O.3     1  LIG1       -0.4398
     29 O           8.3224    5.3547    0.4946 O.2     1  LIG1       -0.2449
     30 BR          7.1898    2.8417    1.7529 Br      1  LIG1       -0.0494
     31 H           9.8660    6.5120   -5.3347 H       1  LIG1        0.1549
@<TRIPOS>BOND
     1    11    10    1
     2     9     8    1
     3    10     8   ar
     4    10    12   ar
     5     8     6   ar
     6    31    26    1
     7    12    26    1
     8    12     3   ar
     9    26     1   am
    10     6     7    1
    11     6     4   ar
    12     3     4   ar
    13     3     2    1
    14     4     5    1
    15     1    27    2
    16     1     2    1
    17    14    13    1
    18     2    13    1
    19     2    28    1
    20    13    15    1
    21    13    16    1
    22    18    17    1
    23    17    16   ar
    24    17    19   ar
    25    28    25    1
    26    16    24   ar
    27    20    19    1
    28    19    21   ar
    29    24    25    1
    30    24    23   ar
    31    25    29    2
    32    21    23   ar
    33    21    22    1
    34    23    30    1
