@<TRIPOS>MOLECULE
PP0661
 56 56 0 0 0
SMALL
GASTEIGER

@<TRIPOS>ATOM
      1 BR         -1.6283   12.9846    1.4797 Br      1  LIG1        0.0000
      2 CL         -0.4467   13.8753    5.8979 Cl      2  LIG2       -0.1232
      3 S           2.7583   11.5892    4.8087 S.3     2  LIG2       -0.1077
      4 N           0.7340   12.3730    3.4929 N.am    2  LIG2       -0.3311
      5 H           0.0031   12.3262    3.0584 H       2  LIG2        0.1471
      6 C           1.3354   11.3047    3.9092 C.2     2  LIG2        0.0690
      7 C           2.5152   13.3794    4.7698 C.3     2  LIG2        0.0216
      8 H           2.3059   13.7159    5.6775 H       2  LIG2        0.0401
      9 H           3.3385   13.8295    4.4521 H       2  LIG2        0.0401
     10 C           1.3311   13.6810    3.7994 C.3     2  LIG2        0.0524
     11 C           0.2591   14.5719    4.4069 C.3     2  LIG2        0.0443
     12 H          -0.4613   14.7119    3.7424 H       2  LIG2        0.0451
     13 H           0.6534   15.4553    4.6175 H       2  LIG2        0.0451
     14 C           1.8006   14.3597    2.5121 C.3     2  LIG2       -0.0419
     15 H           2.0178   15.2974    2.6988 H       2  LIG2        0.0251
     16 H           1.0870   14.3177    1.8416 H       2  LIG2        0.0251
     17 H           2.5966   13.9015    2.1720 H       2  LIG2        0.0251
     18 C           0.8383    9.9488    3.6520 C.ar    2  LIG2        0.0023
     19 C           1.7213    8.8676    3.7202 C.ar    2  LIG2       -0.0523
     20 H           2.6296    9.0112    3.9583 H       2  LIG2        0.0624
     21 C           1.2727    7.5829    3.4407 C.ar    2  LIG2       -0.0611
     22 H           1.8734    6.8473    3.4881 H       2  LIG2        0.0618
     23 C          -0.0572    7.3723    3.0925 C.ar    2  LIG2       -0.0617
     24 H          -0.3647    6.4979    2.8856 H       2  LIG2        0.0618
     25 C          -0.9350    8.4515    3.0473 C.ar    2  LIG2       -0.0611
     26 H          -1.8477    8.3027    2.8281 H       2  LIG2        0.0618
     27 C          -0.4980    9.7335    3.3177 C.ar    2  LIG2       -0.0523
     28 H          -1.1040   10.4647    3.2763 H       2  LIG2        0.0624
     29 BR          1.8514    5.2469    9.0345 Br      3  LIG3        0.0000
     30 CL         -1.6006    3.6263    9.0043 Cl      4  LIG4       -0.1235
     31 S          -2.5880    6.5040    5.7617 S.3     4  LIG4       -0.1292
     32 N          -0.5465    5.7148    7.0177 N.3     4  LIG4       -0.2890
     33 H           0.0564    5.6950    7.6322 H       4  LIG4        0.1242
     34 C          -1.1528    6.7846    6.6569 C.3     4  LIG4        0.1239
     35 C          -2.5004    4.7172    6.0877 C.3     4  LIG4        0.0150
     36 H          -3.1057    4.4693    6.8305 H       4  LIG4        0.0395
     37 H          -2.7591    4.2037    5.2817 H       4  LIG4        0.0395
     38 C          -1.0579    4.4364    6.4581 C.3     4  LIG4        0.0403
     39 C          -0.8437    3.3182    7.4250 C.3     4  LIG4        0.0414
     40 H           0.1285    3.1827    7.5535 H       4  LIG4        0.0448
     41 H          -1.2182    2.4846    7.0440 H       4  LIG4        0.0448
     42 C          -0.2275    4.1061    5.1778 C.3     4  LIG4       -0.0449
     43 H          -0.2233    3.1376    5.0318 H       4  LIG4        0.0248
     44 H           0.6926    4.4234    5.2945 H       4  LIG4        0.0248
     45 H          -0.6305    4.5519    4.4034 H       4  LIG4        0.0248
     46 C          -0.6668    8.1316    6.9037 C.ar    4  LIG4       -0.0145
     47 C          -1.5366    9.2160    6.8349 C.ar    4  LIG4       -0.0559
     48 H          -2.4506    9.0725    6.6187 H       4  LIG4        0.0621
     49 C          -1.0817   10.5111    7.0803 C.ar    4  LIG4       -0.0614
     50 H          -1.6827   11.2464    7.0390 H       4  LIG4        0.0618
     51 C           0.2539   10.7191    7.3840 C.ar    4  LIG4       -0.0617
     52 H           0.5702   11.6016    7.5402 H       4  LIG4        0.0618
     53 C           1.1339    9.6477    7.4619 C.ar    4  LIG4       -0.0614
     54 H           2.0447    9.7984    7.6852 H       4  LIG4        0.0618
     55 C           0.6868    8.3605    7.2151 C.ar    4  LIG4       -0.0559
     56 H           1.2943    7.6321    7.2568 H       4  LIG4        0.0621
@<TRIPOS>BOND
     1    16    14    1
     2    17    14    1
     3    14    15    1
     4    14    10    1
     5    26    25    1
     6    24    23    1
     7    25    23   ar
     8    25    27   ar
     9     5     4    1
    10    23    21   ar
    11    28    27    1
    12    27    18   ar
    13    21    22    1
    14    21    19   ar
    15     4    10    1
    16     4     6    1
    17    18    19   ar
    18    18     6    1
    19    19    20    1
    20    12    11    1
    21    10    11    1
    22    10     7    1
    23     6     3    2
    24    45    42    1
    25    11    13    1
    26    11     2    1
    27     9     7    1
    28     7     3    1
    29     7     8    1
    30    43    42    1
    31    42    44    1
    32    42    38    1
    33    37    35    1
    34    31    35    1
    35    31    34    1
    36    35    38    1
    37    35    36    1
    38    38    32    1
    39    38    39    1
    40    48    47    1
    41    34    46    1
    42    34    32    1
    43    47    46   ar
    44    47    49   ar
    45    46    55   ar
    46    32    33    1
    47    50    49    1
    48    41    39    1
    49    49    51   ar
    50    55    56    1
    51    55    53   ar
    52    51    53   ar
    53    51    52    1
    54    39    40    1
    55    39    30    1
    56    53    54    1
