@<TRIPOS>MOLECULE
4033374.cif
 11 11 0 0 0
SMALL
GASTEIGER

@<TRIPOS>ATOM
      1 CL          2.1280    4.0381   15.6089 Cl      1  LIG1       -0.0645
      2 O          -1.0848    2.6051   19.1182 O.3     1  LIG1       -0.0847
      3 N          -0.5609    2.3999   17.9557 N.4     1  LIG1       -0.2130
      4 N           0.5753    1.9572   15.4594 N.2     1  LIG1       -0.2442
      5 C           0.4016    3.2337   17.4824 C.3     1  LIG1        0.1410
      6 C           0.9193    2.9686   16.2362 C.2     1  LIG1        0.1339
      7 C          -0.3690    1.1488   15.9835 C.2     1  LIG1        0.0471
      8 C          -0.9514    1.3387   17.2056 C.2     1  LIG1        0.0501
      9 H           0.6765    3.9461   18.0099 H       1  LIG1        0.0650
     10 H          -0.5950    0.4127   15.4627 H       1  LIG1        0.0845
     11 H          -1.5689    0.8197   17.5340 H       1  LIG1        0.0846
@<TRIPOS>BOND
     1     4     7    1
     2     4     6    2
     3    10     7    1
     4     1     6    1
     5     7     8    2
     6     6     5    1
     7     8    11    1
     8     8     3    1
     9     5     3    1
    10     5     9    1
    11     3     2    1
