@<TRIPOS>MOLECULE
(3RS,3&#x0092;RS,5&#x0092;RS)-1&#x0092;&#x0092;-Methyl-1&#x0092;,5&#x0092;-diphenyldispiro[indoline-3,2&#x0092;-pyrrolidine-3&#x0092;,3&#x0092;&#x0092;-indoline]-2,2&#x0092;&#x0092;-dione
 81 85 0 0 0
SMALL
GASTEIGER

@<TRIPOS>ATOM
      1 O          -2.3270    9.5158    7.0759 O.2     1  LIG1       -0.2742
      2 N          -1.1539    9.5758    9.0452 N.am    1  LIG1       -0.2734
      3 H           2.3708   11.3700    7.3780 H       1  LIG1        0.1549
      4 O           0.5382    9.9982    6.3739 O.2     1  LIG1       -0.2727
      5 N           1.6981   11.7631    7.2804 N.am    1  LIG1       -0.2831
      6 N          -1.4942   12.2439    5.7239 N.pl3   1  LIG1       -0.3040
      7 C          -1.7305   10.1376    7.9389 C.2     1  LIG1        0.2331
      8 C          -1.5382   11.6744    8.0246 C.3     1  LIG1        0.1099
      9 C          -0.9621   11.8368    9.4134 C.ar    1  LIG1       -0.0081
     10 C          -0.6428   12.9574   10.1605 C.ar    1  LIG1       -0.0557
     11 H          -0.8217   13.8273    9.8258 H       1  LIG1        0.0621
     12 C          -0.0509   12.7844   11.4199 C.ar    1  LIG1       -0.0614
     13 H           0.1827   13.5439   11.9383 H       1  LIG1        0.0618
     14 C           0.1978   11.5133   11.9165 C.ar    1  LIG1       -0.0600
     15 H           0.5995   11.4200   12.7721 H       1  LIG1        0.0618
     16 C          -0.1295   10.3663   11.1855 C.ar    1  LIG1       -0.0400
     17 H           0.0396    9.4961   11.5242 H       1  LIG1        0.0636
     18 C          -0.7123   10.5624    9.9421 C.ar    1  LIG1        0.0402
     19 C          -1.0640    8.1407    9.2565 C.3     1  LIG1        0.0083
     20 H          -0.2219    7.9290    9.7114 H       1  LIG1        0.0433
     21 H          -1.0917    7.6822    8.3915 H       1  LIG1        0.0433
     22 H          -1.8168    7.8423    9.8085 H       1  LIG1        0.0433
     23 C          -0.5828   12.1685    6.8531 C.3     1  LIG1        0.1573
     24 C           0.5986   11.1489    6.7606 C.2     1  LIG1        0.2468
     25 C           1.4622   13.1128    7.5611 C.ar    1  LIG1        0.0392
     26 C           2.3468   14.0444    8.0818 C.ar    1  LIG1       -0.0401
     27 H           3.2385   13.8073    8.3069 H       1  LIG1        0.0636
     28 C           1.8725   15.3444    8.2615 C.ar    1  LIG1       -0.0600
     29 H           2.4489   16.0013    8.6307 H       1  LIG1        0.0618
     30 C           0.5744   15.6965    7.9115 C.ar    1  LIG1       -0.0613
     31 H           0.2826   16.5915    8.0283 H       1  LIG1        0.0618
     32 C          -0.3083   14.7426    7.3872 C.ar    1  LIG1       -0.0542
     33 H          -1.1944   14.9810    7.1426 H       1  LIG1        0.0622
     34 C           0.1418   13.4422    7.2341 C.ar    1  LIG1        0.0074
     35 C          -1.1072   11.9775    4.4129 C.ar    1  LIG1        0.0312
     36 C          -2.0574   11.5967    3.4502 C.ar    1  LIG1       -0.0406
     37 H          -2.9744   11.5433    3.6909 H       1  LIG1        0.0636
     38 C          -1.6703   11.2953    2.1460 C.ar    1  LIG1       -0.0600
     39 H          -2.3263   11.0365    1.5102 H       1  LIG1        0.0618
     40 C          -0.3371   11.3696    1.7647 C.ar    1  LIG1       -0.0616
     41 H          -0.0732   11.1432    0.8809 H       1  LIG1        0.0618
     42 C           0.6055   11.7834    2.7007 C.ar    1  LIG1       -0.0600
     43 H           1.5186   11.8468    2.4468 H       1  LIG1        0.0618
     44 C           0.2321   12.1055    4.0032 C.ar    1  LIG1       -0.0406
     45 H           0.8863   12.4136    4.6189 H       1  LIG1        0.0636
     46 C          -2.9082   12.2642    6.1237 C.3     1  LIG1        0.0514
     47 H          -3.3268   11.3866    5.8860 H       1  LIG1        0.0550
     48 C          -3.7210   13.3852    5.5051 C.ar    1  LIG1       -0.0270
     49 C          -3.1347   14.4972    4.9050 C.ar    1  LIG1       -0.0568
     50 H          -2.1893   14.5542    4.8379 H       1  LIG1        0.0621
     51 C          -3.9289   15.5252    4.4032 C.ar    1  LIG1       -0.0614
     52 H          -3.5213   16.2814    3.9964 H       1  LIG1        0.0618
     53 C          -5.3121   15.4531    4.4938 C.ar    1  LIG1       -0.0617
     54 H          -5.8504   16.1580    4.1530 H       1  LIG1        0.0618
     55 C          -5.9043   14.3482    5.0838 C.ar    1  LIG1       -0.0614
     56 H          -6.8502   14.2941    5.1482 H       1  LIG1        0.0618
     57 C          -5.1139   13.3119    5.5830 C.ar    1  LIG1       -0.0568
     58 H          -5.5253   12.5536    5.9783 H       1  LIG1        0.0621
     59 C          -2.8440   12.3926    7.6599 C.3     1  LIG1       -0.0092
     60 H          -2.8167   13.3439    7.9371 H       1  LIG1        0.0301
     61 H          -3.6227   11.9535    8.0869 H       1  LIG1        0.0301
     62 S           3.9727    8.8656    7.7984 S.3     2  LIG2       -0.0495
     63 O           4.0658   10.3747    7.7638 O.3     2  LIG2       -0.1626
     64 C           5.1286    8.3344    9.0395 C.3     2  LIG2       -0.0004
     65 H           5.0425    7.3688    9.1735 H       2  LIG2        0.0355
     66 H           4.9406    8.7992    9.8815 H       2  LIG2        0.0355
     67 H           6.0408    8.5425    8.7479 H       2  LIG2        0.0355
     68 C           2.4689    8.4738    8.6691 C.3     2  LIG2       -0.0004
     69 H           2.4451    7.5122    8.8632 H       2  LIG2        0.0355
     70 H           1.6982    8.7125    8.1138 H       2  LIG2        0.0355
     71 H           2.4369    8.9793    9.5087 H       2  LIG2        0.0355
     72 S          -3.4399   17.1786    7.4185 S.3     3  LIG3       -0.0495
     73 O          -3.2343   15.9209    8.1979 O.3     3  LIG3       -0.1626
     74 C          -2.8488   18.5087    8.4357 C.3     3  LIG3       -0.0004
     75 H          -3.0976   19.3656    8.0303 H       3  LIG3        0.0355
     76 H          -1.8734   18.4553    8.5106 H       3  LIG3        0.0355
     77 H          -3.2498   18.4420    9.3281 H       3  LIG3        0.0355
     78 C          -5.1775   17.5778    7.5461 C.3     3  LIG3       -0.0004
     79 H          -5.3411   18.4553    7.1397 H       3  LIG3        0.0355
     80 H          -5.4386   17.6018    8.4895 H       3  LIG3        0.0355
     81 H          -5.7041   16.8982    7.0773 H       3  LIG3        0.0355
@<TRIPOS>BOND
     1    41    40    1
     2    39    38    1
     3    40    38   ar
     4    40    42   ar
     5    38    36   ar
     6    43    42    1
     7    42    44   ar
     8    36    37    1
     9    36    35   ar
    10    52    51    1
    11    44    35   ar
    12    44    45    1
    13    54    53    1
    14    51    53   ar
    15    51    49   ar
    16    35     6    1
    17    53    55   ar
    18    50    49    1
    19    49    48   ar
    20    55    56    1
    21    55    57   ar
    22    48    57   ar
    23    48    46    1
    24    57    58    1
    25     6    46    1
    26     6    23    1
    27    47    46    1
    28    46    59    1
    29     4    24    2
    30    24    23    1
    31    24     5   am
    32    23    34    1
    33    23     8    1
    34     1     7    2
    35    81    78    1
    36    79    78    1
    37    33    32    1
    38    34    32   ar
    39    34    25   ar
    40     5     3    1
    41     5    25    1
    42    32    30   ar
    43    72    78    1
    44    72    73    1
    45    72    74    1
    46    78    80    1
    47    25    26   ar
    48    59    60    1
    49    59     8    1
    50    59    61    1
    51    63    62    1
    52    62    68    1
    53    62    64    1
    54    30    31    1
    55    30    28   ar
    56     7     8    1
    57     7     2   am
    58     8     9    1
    59    75    74    1
    60    26    28   ar
    61    26    27    1
    62    70    68    1
    63    28    29    1
    64    21    19    1
    65    74    76    1
    66    74    77    1
    67    68    69    1
    68    68    71    1
    69    67    64    1
    70    64    65    1
    71    64    66    1
    72     2    19    1
    73     2    18    1
    74    19    20    1
    75    19    22    1
    76     9    18   ar
    77     9    10   ar
    78    11    10    1
    79    18    16   ar
    80    10    12   ar
    81    16    17    1
    82    16    14   ar
    83    12    14   ar
    84    12    13    1
    85    14    15    1
