@<TRIPOS>MOLECULE
4033111.cif
 43 44 0 0 0
SMALL
GASTEIGER

@<TRIPOS>ATOM
      1 B           1.8192    9.4750    4.3929 B       1  LIG1        0.0000
      2 B           4.2665    3.0445    5.2487 B       2  LIG2        0.0000
      3 N           1.9663    9.5170    5.8482 N.pl3   1  LIG1        0.0000
      4 N           4.2665    3.0445    6.7030 N.2     2  LIG2        0.0000
      5 O           1.1373   10.9307    1.7881 O.2     1  LIG1        0.0000
      6 O           1.9017    8.1175    1.7336 O.2     1  LIG1        0.0000
      7 O           2.9888    2.3444    2.6432 O.2     2  LIG2        0.0000
      8 C           2.5242   10.6020    3.6497 C.2     1  LIG1        0.0000
      9 C           3.3333   11.4393    4.3381 C.3     1  LIG1        0.0000
     10 H           3.8064   12.0949    3.8786 H       1  LIG1        0.0000
     11 C           3.4750   11.3389    5.7415 C.2     1  LIG1        0.0000
     12 H           4.0599   11.9136    6.1801 H       1  LIG1        0.0000
     13 C           2.7879   10.4378    6.4553 C.2     1  LIG1        0.0000
     14 H           2.8686   10.4335    7.3818 H       1  LIG1        0.0000
     15 C           1.2813    8.6375    6.6564 C.2     1  LIG1        0.0000
     16 H           1.3754    8.7059    7.5791 H       1  LIG1        0.0000
     17 C           0.4819    7.6846    6.1527 C.2     1  LIG1        0.0000
     18 H           0.0202    7.1210    6.7306 H       1  LIG1        0.0000
     19 C           0.3321    7.5259    4.7625 C.2     1  LIG1        0.0000
     20 H          -0.2249    6.8503    4.4492 H       1  LIG1        0.0000
     21 C           0.9676    8.3188    3.8563 C.2     1  LIG1        0.0000
     22 C           2.2645   10.9052    2.2149 C.2     1  LIG1        0.0000
     23 C           3.4246   11.2098    1.3342 C.3     1  LIG1        0.0000
     24 H           3.1141   11.3709    0.4402 H       1  LIG1        0.0000
     25 H           4.0299   10.4646    1.3331 H       1  LIG1        0.0000
     26 H           3.8784   11.9901    1.6609 H       1  LIG1        0.0000
     27 C           0.9274    7.9491    2.4339 C.2     1  LIG1        0.0000
     28 C          -0.2930    7.3238    1.8458 C.3     1  LIG1        0.0000
     29 H          -0.9746    7.2580    2.5186 H       1  LIG1        0.0000
     30 H          -0.6115    7.8654    1.1197 H       1  LIG1        0.0000
     31 H          -0.0782    6.4468    1.5205 H       1  LIG1        0.0000
     32 C           3.0081    3.6143    4.6013 C.2     2  LIG2        0.0000
     33 C           2.0819    4.2282    5.3932 C.2     2  LIG2        0.0000
     34 H           1.3347    4.6216    5.0034 H       2  LIG2        0.0000
     35 C           2.2404    4.2757    6.7928 C.2     2  LIG2        0.0000
     36 H           1.6128    4.7350    7.3024 H       2  LIG2        0.0000
     37 C           3.2579    3.6838    7.4057 C.2     2  LIG2        0.0000
     38 H           3.2957    3.6989    8.3348 H       2  LIG2        0.0000
     39 C           2.6925    3.3925    3.1803 C.2     2  LIG2        0.0000
     40 C           1.9622    4.4462    2.4047 C.3     2  LIG2        0.0000
     41 H           1.8044    5.2068    2.9686 H       2  LIG2        0.0000
     42 H           2.4917    4.7120    1.6494 H       2  LIG2        0.0000
     43 H           1.1228    4.0944    2.0993 H       2  LIG2        0.0000
@<TRIPOS>BOND
     1    24    23    1
     2    30    28    1
     3    25    23    1
     4    23    26    1
     5    23    22    1
     6    31    28    1
     7    42    40    1
     8     6    27    2
     9     5    22    2
    10    28    27    1
    11    28    29    1
    12    43    40    1
    13    22     8    1
    14    40    41    1
    15    40    39    1
    16    27    21    1
    17     7    39    2
    18    39    32    1
    19     8     9    1
    20     8     1    2
    21    21     1    1
    22    21    19    2
    23    10     9    1
    24     9    11    1
    25     1     3    1
    26    20    19    1
    27    32     2    1
    28    32    33    2
    29    19    17    1
    30    34    33    1
    31     2     4    2
    32    33    35    1
    33    11    12    1
    34    11    13    2
    35     3    13    1
    36     3    15    1
    37    17    15    2
    38    17    18    1
    39    13    14    1
    40    15    16    1
    41     4    37    1
    42    35    36    1
    43    35    37    2
    44    37    38    1
