@<TRIPOS>MOLECULE
?
 96 104 0 0 0
SMALL
GASTEIGER

@<TRIPOS>ATOM
      1 P           7.6677    3.1009   11.5424 P.3     1  LIG1        0.2248
      2 P          -1.0068    2.9294   11.9915 P.3     2  LIG2        0.2248
      3 S           7.7112    3.2069   13.4939 S.3     1  LIG1        0.1504
      4 S           0.5903    3.5389   12.9281 S.3     2  LIG2        0.1504
      5 CL         11.5592    9.4590    9.4505 Cl      1  LIG1       -0.0834
      6 CL         -5.4042    9.2093   13.2532 Cl      2  LIG2       -0.0834
      7 O           8.9484    5.3554   11.1073 O.2     1  LIG1       -0.4236
      8 O          -2.3920    5.1914   12.1607 O.2     2  LIG2       -0.4236
      9 C           9.9261    5.9850   10.3917 C.ar    1  LIG1        0.1414
     10 C          10.1619    7.3509   10.3931 C.ar    1  LIG1       -0.0003
     11 H           9.6577    7.9570   10.9233 H       1  LIG1        0.0669
     12 C          11.1911    7.7640    9.5592 C.ar    1  LIG1        0.0445
     13 C          11.9504    6.8758    8.7879 C.ar    1  LIG1       -0.0426
     14 H          12.6587    7.2060    8.2462 H       1  LIG1        0.0632
     15 C          11.6771    5.5208    8.8088 C.ar    1  LIG1       -0.0489
     16 H          12.1856    4.9134    8.2832 H       1  LIG1        0.0625
     17 C          10.6342    5.0644    9.6220 C.ar    1  LIG1        0.0322
     18 C          10.0273    3.7686    9.8646 C.ar    1  LIG1        0.0739
     19 C           9.0200    4.0060   10.7603 C.ar    1  LIG1        0.2799
     20 C          10.4499    2.5386    9.1593 C.ar    1  LIG1       -0.0102
     21 C          10.8122    1.3651    9.8245 C.ar    1  LIG1       -0.0538
     22 H          10.7816    1.3295   10.7734 H       1  LIG1        0.0624
     23 C          11.2175    0.2492    9.1017 C.ar    1  LIG1       -0.0612
     24 H          11.4518   -0.5504    9.5592 H       1  LIG1        0.0618
     25 C          11.2835    0.2949    7.7109 C.ar    1  LIG1       -0.0617
     26 H          11.5578   -0.4724    7.2219 H       1  LIG1        0.0618
     27 C          10.9486    1.4578    7.0455 C.ar    1  LIG1       -0.0612
     28 H          11.0026    1.4952    6.0973 H       1  LIG1        0.0618
     29 C          10.5328    2.5746    7.7615 C.ar    1  LIG1       -0.0538
     30 H          10.3019    3.3701    7.2976 H       1  LIG1        0.0624
     31 C           7.7474    1.4238   10.8922 C.ar    1  LIG1        0.1214
     32 C           7.5093    1.1503    9.5421 C.ar    1  LIG1       -0.0177
     33 H           7.2827    1.8533    8.9444 H       1  LIG1        0.0657
     34 C           7.6067   -0.1560    9.0822 C.ar    1  LIG1       -0.0580
     35 H           7.4501   -0.3481    8.1658 H       1  LIG1        0.0619
     36 C           7.9331   -1.1834    9.9606 C.ar    1  LIG1       -0.0615
     37 H           7.9950   -2.0754    9.6411 H       1  LIG1        0.0618
     38 C           8.1669   -0.9129   11.2964 C.ar    1  LIG1       -0.0580
     39 H           8.3977   -1.6179   11.8903 H       1  LIG1        0.0619
     40 C           8.0661    0.3869   11.7712 C.ar    1  LIG1       -0.0177
     41 H           8.2134    0.5702   12.6921 H       1  LIG1        0.0657
     42 C           6.1896    3.8565   10.8128 C.ar    1  LIG1        0.1214
     43 C           6.2085    4.5210    9.5830 C.ar    1  LIG1       -0.0177
     44 H           7.0195    4.5935    9.0942 H       1  LIG1        0.0657
     45 C           5.0378    5.0746    9.0760 C.ar    1  LIG1       -0.0580
     46 H           5.0514    5.5334    8.2446 H       1  LIG1        0.0619
     47 C           3.8493    4.9585    9.7835 C.ar    1  LIG1       -0.0615
     48 H           3.0511    5.3361    9.4341 H       1  LIG1        0.0618
     49 C           3.8247    4.2906   11.0015 C.ar    1  LIG1       -0.0580
     50 H           3.0089    4.2106   11.4810 H       1  LIG1        0.0619
     51 C           4.9887    3.7419   11.5179 C.ar    1  LIG1       -0.0177
     52 H           4.9691    3.2872   12.3522 H       1  LIG1        0.0657
     53 C          -3.5104    5.7877   12.6820 C.ar    2  LIG2        0.1414
     54 C          -3.7847    7.1458   12.6311 C.ar    2  LIG2       -0.0003
     55 H          -3.2134    7.7680   12.1993 H       2  LIG2        0.0669
     56 C          -4.9593    7.5221   13.2612 C.ar    2  LIG2        0.0445
     57 C          -5.8214    6.6151   13.8876 C.ar    2  LIG2       -0.0426
     58 H          -6.6251    6.9259   14.2879 H       2  LIG2        0.0632
     59 C          -5.5066    5.2660   13.9248 C.ar    2  LIG2       -0.0489
     60 H          -6.0848    4.6432   14.3481 H       2  LIG2        0.0625
     61 C          -4.3160    4.8438   13.3225 C.ar    2  LIG2        0.0322
     62 C          -3.6088    3.5788   13.2275 C.ar    2  LIG2        0.0739
     63 C          -2.4762    3.8425   12.5107 C.ar    2  LIG2        0.2799
     64 C          -4.0267    2.3105   13.8587 C.ar    2  LIG2       -0.0102
     65 C          -5.2885    1.7746   13.5902 C.ar    2  LIG2       -0.0538
     66 H          -5.8944    2.2462   13.0304 H       2  LIG2        0.0624
     67 C          -5.6577    0.5535   14.1402 C.ar    2  LIG2       -0.0612
     68 H          -6.5090    0.1823   13.9387 H       2  LIG2        0.0618
     69 C          -4.7909   -0.1283   14.9823 C.ar    2  LIG2       -0.0617
     70 H          -5.0459   -0.9664   15.3507 H       2  LIG2        0.0618
     71 C          -3.5536    0.4161   15.2838 C.ar    2  LIG2       -0.0612
     72 H          -2.9633   -0.0431   15.8697 H       2  LIG2        0.0618
     73 C          -3.1728    1.6327   14.7314 C.ar    2  LIG2       -0.0538
     74 H          -2.3266    2.0058   14.9490 H       2  LIG2        0.0624
     75 C          -0.9269    3.1730   10.1960 C.ar    2  LIG2        0.1214
     76 C          -2.0616    3.3442    9.4120 C.ar    2  LIG2       -0.0177
     77 H          -2.9189    3.3917    9.8188 H       2  LIG2        0.0657
     78 C          -1.9407    3.4477    8.0256 C.ar    2  LIG2       -0.0580
     79 H          -2.7162    3.5458    7.4846 H       2  LIG2        0.0619
     80 C          -0.6835    3.4062    7.4401 C.ar    2  LIG2       -0.0615
     81 H          -0.5984    3.4961    6.4974 H       2  LIG2        0.0618
     82 C           0.4451    3.2355    8.2163 C.ar    2  LIG2       -0.0580
     83 H           1.3021    3.2060    7.8059 H       2  LIG2        0.0619
     84 C           0.3340    3.1060    9.5958 C.ar    2  LIG2       -0.0177
     85 H           1.1097    2.9723   10.1277 H       2  LIG2        0.0657
     86 C          -1.3818    1.1745   12.2124 C.ar    2  LIG2        0.1214
     87 C          -2.4846    0.5940   11.5805 C.ar    2  LIG2       -0.0177
     88 H          -3.0418    1.1173   11.0160 H       2  LIG2        0.0657
     89 C          -2.7598   -0.7526   11.7828 C.ar    2  LIG2       -0.0580
     90 H          -3.5150   -1.1488   11.3651 H       2  LIG2        0.0619
     91 C          -1.9350   -1.5203   12.5920 C.ar    2  LIG2       -0.0615
     92 H          -2.1284   -2.4401   12.7276 H       2  LIG2        0.0618
     93 C          -0.8324   -0.9527   13.2020 C.ar    2  LIG2       -0.0580
     94 H          -0.2668   -1.4836   13.7487 H       2  LIG2        0.0619
     95 C          -0.5507    0.3987   13.0153 C.ar    2  LIG2       -0.0177
     96 H           0.2059    0.7891   13.4351 H       2  LIG2        0.0657
@<TRIPOS>BOND
     1    28    27    1
     2    81    80    1
     3    27    25   ar
     4    27    29   ar
     5    26    25    1
     6    30    29    1
     7    80    78   ar
     8    80    82   ar
     9    79    78    1
    10    25    23   ar
    11    29    20   ar
    12    83    82    1
    13    78    76   ar
    14    35    34    1
    15    82    84   ar
    16    46    45    1
    17    14    13    1
    18    16    15    1
    19    13    15   ar
    20    13    12   ar
    21    15    17   ar
    22    33    32    1
    23    45    43   ar
    24    45    47   ar
    25    34    32   ar
    26    34    36   ar
    27    44    43    1
    28    23    24    1
    29    23    21   ar
    30    20    21   ar
    31    20    18    1
    32    76    77    1
    33    76    75   ar
    34    48    47    1
    35     5    12    1
    36    32    31   ar
    37    12    10   ar
    38    43    42   ar
    39    84    85    1
    40    84    75   ar
    41    17    18   ar
    42    17     9   ar
    43    37    36    1
    44    47    49   ar
    45    21    22    1
    46    18    19   ar
    47    36    38   ar
    48    75     2    1
    49     9    10   ar
    50     9     7   ar
    51    10    11    1
    52    19     7   ar
    53    19     1    1
    54    42    51   ar
    55    42     1    1
    56    31     1    1
    57    31    40   ar
    58    49    50    1
    59    49    51   ar
    60    88    87    1
    61    38    40   ar
    62    38    39    1
    63    90    89    1
    64    51    52    1
    65     1     3    1
    66    87    89   ar
    67    87    86   ar
    68    40    41    1
    69    89    91   ar
    70     2    86    1
    71     2    63    1
    72     2     4    1
    73     8    63   ar
    74     8    53   ar
    75    55    54    1
    76    86    95   ar
    77    63    62   ar
    78    91    92    1
    79    91    93   ar
    80    54    53   ar
    81    54    56   ar
    82    53    61   ar
    83    95    93   ar
    84    95    96    1
    85    66    65    1
    86    93    94    1
    87    62    61   ar
    88    62    64    1
    89     6    56    1
    90    56    57   ar
    91    61    59   ar
    92    65    64   ar
    93    65    67   ar
    94    64    73   ar
    95    57    59   ar
    96    57    58    1
    97    59    60    1
    98    68    67    1
    99    67    69   ar
   100    73    74    1
   101    73    71   ar
   102    69    71   ar
   103    69    70    1
   104    71    72    1
