@<TRIPOS>MOLECULE
C23 H28 N2 O2
 110 116 0 0 0
SMALL
GASTEIGER

@<TRIPOS>ATOM
      1 O           1.7391    5.9161    6.2902 O.2     1  LIG1       -0.2685
      2 O           8.8591    5.3001    7.5360 O.3     1  LIG1       -0.4951
      3 N           3.3694    5.8950    7.8599 N.am    1  LIG1       -0.3067
      4 N           7.4849    3.4530   16.7479 N.am    2  LIG2       -0.3067
      5 N           5.2657    6.0309    6.0037 N.ar    1  LIG1       -0.2504
      6 N           5.6051    3.6762   18.6274 N.ar    2  LIG2       -0.2504
      7 O           9.0815    4.1238   18.2088 O.2     2  LIG2       -0.2685
      8 O           1.8263    4.3597   16.9208 O.3     2  LIG2       -0.4951
      9 C           2.9223    5.9277    6.6006 C.2     1  LIG1        0.2626
     10 C           4.0122    5.9708    5.5613 C.ar    1  LIG1        0.1253
     11 C           7.7759    5.4159    8.3697 C.ar    1  LIG1        0.1201
     12 C           2.4646    5.8529    8.9986 C.3     1  LIG1        0.0302
     13 H           1.6746    6.3805    8.7569 H       1  LIG1        0.0504
     14 C           8.3374    3.3624   15.5733 C.3     2  LIG2        0.0302
     15 H           9.2291    3.6657   15.8457 H       2  LIG2        0.0504
     16 C           7.9273    3.8194   17.9491 C.2     2  LIG2        0.2626
     17 C           5.4591    5.4675    9.9877 C.ar    1  LIG1       -0.0434
     18 C           6.2409    3.9964   21.3151 C.ar    2  LIG2       -0.0582
     19 H           6.4531    4.1080   22.2138 H       2  LIG2        0.0619
     20 C           7.2322    4.0069   20.3551 C.ar    2  LIG2       -0.0312
     21 H           8.1240    4.1238   20.5920 H       2  LIG2        0.0640
     22 C           4.7165    5.8919    3.2852 C.ar    1  LIG1       -0.0582
     23 H           4.5310    5.8434    2.3756 H       1  LIG1        0.0619
     24 C           3.6868    5.9182    4.2149 C.ar    1  LIG1       -0.0312
     25 H           2.7988    5.9003    3.9412 H       1  LIG1        0.0640
     26 C           5.3222    3.8237   14.6771 C.ar    2  LIG2       -0.0434
     27 C           6.9393    4.3133    8.4515 C.ar    1  LIG1       -0.0197
     28 H           7.1403    3.5478    7.9650 H       1  LIG1        0.0654
     29 C           6.8667    3.8373   19.0279 C.ar    2  LIG2        0.1253
     30 C           8.9045    3.6257   13.2899 C.3     2  LIG2       -0.0244
     31 C           6.5511    3.7341   13.7774 C.3     2  LIG2       -0.0080
     32 H           6.3641    4.3239   13.0171 H       2  LIG2        0.0355
     33 C           3.0158    6.4405   10.3074 C.3     1  LIG1       -0.0015
     34 C           1.8693    5.9782   11.2815 C.3     1  LIG1       -0.0244
     35 C           5.8119    4.3397    9.2476 C.ar    1  LIG1       -0.0548
     36 H           5.2714    3.5836    9.2909 H       1  LIG1        0.0622
     37 C           6.2404    6.0140    5.0946 C.ar    1  LIG1        0.0284
     38 H           7.1197    6.0561    5.3927 H       1  LIG1        0.0830
     39 C           4.2206    5.5833   10.8587 C.3     1  LIG1       -0.0080
     40 H           4.5129    6.0319   11.6797 H       1  LIG1        0.0355
     41 C           7.9250    4.2186   14.3617 C.3     2  LIG2       -0.0015
     42 C           6.3346    6.5458    9.9085 C.ar    1  LIG1       -0.0548
     43 H           6.1492    7.3040   10.4134 H       1  LIG1        0.0622
     44 C           4.6575    2.7253   15.2026 C.ar    2  LIG2       -0.0548
     45 H           4.9970    1.8744   15.0406 H       2  LIG2        0.0622
     46 C           3.2885    7.9232   10.2459 C.3     1  LIG1       -0.0568
     47 H           3.9849    8.0938    9.6066 H       1  LIG1        0.0236
     48 H           3.5659    8.2339   11.1110 H       1  LIG1        0.0236
     49 H           2.4900    8.3845    9.9802 H       1  LIG1        0.0236
     50 C           4.9308    3.8194   20.9210 C.ar    2  LIG2       -0.0436
     51 H           4.2433    3.7984   21.5475 H       2  LIG2        0.0633
     52 C           7.4699    6.5458    9.1125 C.ar    1  LIG1       -0.0197
     53 H           8.0196    7.2956    9.0776 H       1  LIG1        0.0654
     54 C           2.9729    4.1090   16.2066 C.ar    2  LIG2        0.1201
     55 C           6.0154    5.9382    3.7314 C.ar    1  LIG1       -0.0436
     56 H           6.7255    5.9182    3.1311 H       1  LIG1        0.0633
     57 C           8.5089    1.9439   14.9740 C.3     2  LIG2       -0.0306
     58 H           9.3779    1.5733   15.1944 H       2  LIG2        0.0286
     59 H           7.8179    1.3427   15.2919 H       2  LIG2        0.0286
     60 C           4.7698    5.0768   14.9532 C.ar    2  LIG2       -0.0548
     61 H           5.1880    5.8371   14.6191 H       2  LIG2        0.0622
     62 C           8.3773    2.1904   13.4564 C.3     2  LIG2       -0.0331
     63 H           8.8303    1.5248   12.8964 H       2  LIG2        0.0307
     64 C           6.8826    2.3536   13.1631 C.3     2  LIG2       -0.0422
     65 H           6.3649    1.6491   13.5842 H       2  LIG2        0.0274
     66 H           6.7098    2.3452   12.2087 H       2  LIG2        0.0274
     67 C           1.9607    4.4429    9.4233 C.3     1  LIG1       -0.0306
     68 H           1.0441    4.2996    9.1421 H       1  LIG1        0.0286
     69 H           2.5210    3.7436    9.0512 H       1  LIG1        0.0286
     70 C           2.0732    4.4871   10.9624 C.3     1  LIG1       -0.0331
     71 H           1.4523    3.8879   11.4284 H       1  LIG1        0.0307
     72 C           2.1170    6.3742   12.7399 C.3     1  LIG1       -0.0590
     73 H           1.4559    5.9603   13.2998 H       1  LIG1        0.0235
     74 H           2.0593    7.3282   12.8270 H       1  LIG1        0.0235
     75 H           2.9908    6.0804   13.0072 H       1  LIG1        0.0235
     76 C           4.6652    3.6731   19.5707 C.ar    2  LIG2        0.0284
     77 H           3.7801    3.5657   19.3075 H       2  LIG2        0.0830
     78 C           8.0226    5.6971   14.6215 C.3     2  LIG2       -0.0568
     79 H           7.4268    5.9361   15.3349 H       2  LIG2        0.0236
     80 H           7.7788    6.1783   13.8272 H       2  LIG2        0.0236
     81 H           8.9235    5.9203   14.8670 H       2  LIG2        0.0236
     82 C           3.4952    2.8570   15.9677 C.ar    2  LIG2       -0.0197
     83 H           3.0763    2.1019   16.3136 H       2  LIG2        0.0654
     84 C           8.7245    4.2154   11.8844 C.3     2  LIG2       -0.0590
     85 H           9.3658    3.8216   11.2879 H       2  LIG2        0.0235
     86 H           8.8599    5.1663   11.9161 H       2  LIG2        0.0235
     87 H           7.8368    4.0290   11.5706 H       2  LIG2        0.0235
     88 C           3.6220    5.2200   15.7060 C.ar    2  LIG2       -0.0197
     89 H           3.2846    6.0688   15.8771 H       2  LIG2        0.0654
     90 C           3.5440    4.2649   11.3173 C.3     1  LIG1       -0.0422
     91 H           3.9073    3.5014   10.8415 H       1  LIG1        0.0274
     92 H           3.6569    4.1269   12.2715 H       1  LIG1        0.0274
     93 C           0.4826    6.5216   10.9295 C.3     1  LIG1       -0.0590
     94 H           0.1940    6.1446   10.0943 H       1  LIG1        0.0235
     95 H           0.5228    7.4778   10.8531 H       1  LIG1        0.0235
     96 H          -0.1401    6.2826   11.6202 H       1  LIG1        0.0235
     97 C           9.7060    6.4426    7.4178 C.3     1  LIG1        0.0788
     98 H           9.1976    7.1840    7.0806 H       1  LIG1        0.0660
     99 H          10.4246    6.2457    6.8111 H       1  LIG1        0.0660
    100 H          10.0648    6.6659    8.2791 H       1  LIG1        0.0660
    101 C          10.3904    3.7815   13.6432 C.3     2  LIG2       -0.0590
    102 H          10.9279    3.4498   12.9196 H       2  LIG2        0.0235
    103 H          10.5837    3.2834   14.4405 H       2  LIG2        0.0235
    104 H          10.5889    4.7103   13.7892 H       2  LIG2        0.0235
    105 C           1.0181    3.2361   17.2360 C.3     2  LIG2        0.0788
    106 H           0.8204    2.7474   16.4342 H       2  LIG2        0.0660
    107 H           0.1986    3.5341   17.6394 H       2  LIG2        0.0660
    108 H           1.4872    2.6663   17.8510 H       2  LIG2        0.0660
    109 H           4.2295    5.9182    7.9683 H       1  LIG1        0.1494
    110 H           6.6119    3.2329   16.6475 H       2  LIG2        0.1494
@<TRIPOS>BOND
     1    23    22    1
     2    56    55    1
     3    22    55   ar
     4    22    24   ar
     5    55    37   ar
     6    25    24    1
     7    24    10   ar
     8    37    38    1
     9    37     5   ar
    10    10     5   ar
    11    10     9    1
    12     1     9    2
    13     9     3   am
    14    99    97    1
    15    98    97    1
    16    97     2    1
    17    97   100    1
    18     2    11    1
    19     3   109    1
    20     3    12    1
    21    28    27    1
    22    11    27   ar
    23    11    52   ar
    24    27    35   ar
    25    13    12    1
    26    12    67    1
    27    12    33    1
    28    69    67    1
    29    53    52    1
    30    52    42   ar
    31    68    67    1
    32    35    36    1
    33    35    17   ar
    34    67    70    1
    35    47    46    1
    36    42    17   ar
    37    42    43    1
    38    49    46    1
    39    17    39    1
    40    94    93    1
    41    46    33    1
    42    46    48    1
    43    33    39    1
    44    33    34    1
    45    91    90    1
    46    95    93    1
    47    39    90    1
    48    39    40    1
    49    93    34    1
    50    93    96    1
    51    70    34    1
    52    70    90    1
    53    70    71    1
    54    34    72    1
    55    85    84    1
    56    90    92    1
    57    87    84    1
    58    84    86    1
    59    84    30    1
    60    66    64    1
    61    72    74    1
    62    72    75    1
    63    72    73    1
    64    63    62    1
    65   102   101    1
    66    32    31    1
    67    64    62    1
    68    64    65    1
    69    64    31    1
    70    30    62    1
    71    30   101    1
    72    30    41    1
    73    62    57    1
    74   101   104    1
    75   101   103    1
    76    31    41    1
    77    31    26    1
    78    80    78    1
    79    41    78    1
    80    41    14    1
    81    61    60    1
    82    78    81    1
    83    78    79    1
    84    26    60   ar
    85    26    44   ar
    86    60    88   ar
    87    57    58    1
    88    57    59    1
    89    57    14    1
    90    45    44    1
    91    44    82   ar
    92    14    15    1
    93    14     4    1
    94    88    89    1
    95    88    54   ar
    96    82    54   ar
    97    82    83    1
    98    54     8    1
    99   106   105    1
   100   110     4    1
   101     4    16   am
   102     8   105    1
   103   105   107    1
   104   105   108    1
   105    16     7    2
   106    16    29    1
   107     6    29   ar
   108     6    76   ar
   109    29    20   ar
   110    77    76    1
   111    76    50   ar
   112    20    21    1
   113    20    18   ar
   114    50    18   ar
   115    50    51    1
   116    18    19    1
