@<TRIPOS>MOLECULE
4033956.cif
 43 44 0 0 0
SMALL
GASTEIGER

@<TRIPOS>ATOM
      1 B           0.8874    5.5244    7.9784 B       1  LIG1        0.0000
      2 C           2.4818    5.3000    9.7810 C.3     1  LIG1        0.0000
      3 H           3.3518    5.4608    9.3368 H       1  LIG1        0.0000
      4 H           2.6349    4.6715   10.5302 H       1  LIG1        0.0000
      5 C           1.9525    6.6146   10.3318 C.3     1  LIG1        0.0000
      6 C           1.6381    7.5139    9.1432 C.3     1  LIG1        0.0000
      7 H           1.1675    8.3216    9.4673 H       1  LIG1        0.0000
      8 H           2.4886    7.8056    8.7280 H       1  LIG1        0.0000
      9 C          -0.0049    4.8651    6.8622 C.3     1  LIG1        0.0000
     10 H          -0.7931    4.4406    7.2848 H       1  LIG1        0.0000
     11 H          -0.3310    5.5704    6.2492 H       1  LIG1        0.0000
     12 C           0.7504    3.8272    6.0674 C.2     1  LIG1        0.0000
     13 C           2.0659    4.3387    5.5489 C.2     1  LIG1        0.0000
     14 C           3.9184    3.8781    3.9364 C.ar    1  LIG1        0.0000
     15 C           4.3400    2.9595    2.9840 C.ar    1  LIG1        0.0000
     16 H           3.7905    2.2139    2.7721 H       1  LIG1        0.0000
     17 C           5.5549    3.1215    2.3415 C.ar    1  LIG1        0.0000
     18 H           5.8267    2.4841    1.6910 H       1  LIG1        0.0000
     19 C           6.3856    4.1976    2.6287 C.ar    1  LIG1        0.0000
     20 C           5.9515    5.0965    3.5782 C.ar    1  LIG1        0.0000
     21 H           6.5045    5.8396    3.7906 H       1  LIG1        0.0000
     22 C           4.7356    4.9595    4.2384 C.ar    1  LIG1        0.0000
     23 H           4.4662    5.5981    4.8879 H       1  LIG1        0.0000
     24 C           7.7071    4.3885    1.9125 C.3     1  LIG1        0.0000
     25 H           7.6527    5.1757    1.3309 H       1  LIG1        0.0000
     26 H           7.9021    3.5959    1.3714 H       1  LIG1        0.0000
     27 H           8.4209    4.5183    2.5719 H       1  LIG1        0.0000
     28 C           3.0338    7.2840   11.1717 C.3     1  LIG1        0.0000
     29 H           3.2283    6.7300   11.9562 H       1  LIG1        0.0000
     30 H           2.7212    8.1663   11.4637 H       1  LIG1        0.0000
     31 H           3.8480    7.3864   10.6354 H       1  LIG1        0.0000
     32 C           0.6951    6.3728   11.1698 C.3     1  LIG1        0.0000
     33 H           0.0057    5.9555   10.6121 H       1  LIG1        0.0000
     34 H           0.3623    7.2279   11.5143 H       1  LIG1        0.0000
     35 H           0.9115    5.7800   11.9198 H       1  LIG1        0.0000
     36 C           0.3748    2.5723    5.9456 C.2     1  LIG1        0.0000
     37 H           0.9449    1.9458    5.5149 H       1  LIG1        0.0000
     38 H          -0.4653    2.2926    6.2886 H       1  LIG1        0.0000
     39 N           2.6543    3.6460    4.5383 N.am    1  LIG1        0.0000
     40 O           1.5718    4.6993    8.8377 O.3     1  LIG1        0.0000
     41 O           0.8309    6.8726    8.1491 O.3     1  LIG1        0.0000
     42 O           2.5611    5.3372    6.0600 O.2     1  LIG1        0.0000
     43 H           2.2365    2.9661    4.2588 H       1  LIG1        0.0000
@<TRIPOS>BOND
     1    25    24    1
     2    26    24    1
     3    18    17    1
     4    24    27    1
     5    24    19    1
     6    17    19   ar
     7    17    15   ar
     8    19    20   ar
     9    16    15    1
    10    15    14   ar
    11    20    21    1
    12    20    22   ar
    13    14    22   ar
    14    14    39    1
    15    22    23    1
    16    43    39    1
    17    39    13   am
    18    37    36    1
    19    13    42    2
    20    13    12    1
    21    36    12    2
    22    36    38    1
    23    12     9    1
    24    11     9    1
    25     9    10    1
    26     9     1    1
    27     1    41    1
    28     1    40    1
    29    41     6    1
    30     8     6    1
    31    40     2    1
    32     6     7    1
    33     6     5    1
    34     3     2    1
    35     2     5    1
    36     2     4    1
    37     5    32    1
    38     5    28    1
    39    33    32    1
    40    31    28    1
    41    32    34    1
    42    32    35    1
    43    28    30    1
    44    28    29    1
