@<TRIPOS>MOLECULE
C19 H14 N2 O2 S
 76 82 0 0 0
SMALL
GASTEIGER

@<TRIPOS>ATOM
      1 C           5.7373   -0.1416   12.8072 C.ar    1  LIG1        0.0130
      2 H           4.9448    0.3354   12.7064 H       1  LIG1        0.0814
      3 C           5.7543   -1.4884   12.6987 C.ar    1  LIG1       -0.0450
      4 H           4.9577   -1.9423   12.5393 H       1  LIG1        0.0632
      5 C           6.9454   -2.2165   12.8200 C.ar    1  LIG1       -0.0569
      6 H           6.9316   -3.1425   12.7362 H       1  LIG1        0.0619
      7 C           8.1146   -1.5808   13.0574 C.ar    1  LIG1       -0.0187
      8 H           8.9066   -2.0639   13.1254 H       1  LIG1        0.0654
      9 C           8.1228   -0.1778   13.2000 C.ar    1  LIG1        0.1397
     10 C           7.2420    1.8489   13.2628 C.ar    1  LIG1        0.1945
     11 C           8.6090    1.8831   13.5235 C.ar    1  LIG1        0.1158
     12 C           9.4707    3.0290   13.8940 C.ar    1  LIG1        0.0038
     13 C           9.5889    4.1709   13.1098 C.ar    1  LIG1       -0.0525
     14 H           9.1004    4.2482   12.3218 H       1  LIG1        0.0624
     15 C          10.4337    5.1913   13.5002 C.ar    1  LIG1       -0.0611
     16 H          10.5143    5.9505   12.9697 H       1  LIG1        0.0618
     17 C          11.1541    5.0969   14.6642 C.ar    1  LIG1       -0.0617
     18 H          11.7121    5.7939   14.9272 H       1  LIG1        0.0618
     19 C          11.0482    3.9741   15.4350 C.ar    1  LIG1       -0.0611
     20 H          11.5370    3.9068   16.2230 H       1  LIG1        0.0618
     21 C          10.2194    2.9366   15.0499 C.ar    1  LIG1       -0.0525
     22 H          10.1651    2.1703   15.5751 H       1  LIG1        0.0624
     23 C           5.6039    2.7157   15.3059 C.ar    1  LIG1        0.0953
     24 C           6.3411    3.2941   16.3178 C.ar    1  LIG1       -0.0364
     25 H           7.0363    3.8817   16.1246 H       1  LIG1        0.0637
     26 C           6.0162    2.9758   17.6397 C.ar    1  LIG1       -0.0599
     27 H           6.4907    3.3624   18.3408 H       1  LIG1        0.0618
     28 C           4.9985    2.0930   17.9074 C.ar    1  LIG1       -0.0616
     29 H           4.8132    1.8560   18.7872 H       1  LIG1        0.0618
     30 C           4.2627    1.5647   16.9032 C.ar    1  LIG1       -0.0599
     31 H           3.5521    0.9983   17.0999 H       1  LIG1        0.0618
     32 C           4.5624    1.8640   15.5834 C.ar    1  LIG1       -0.0364
     33 H           4.0636    1.4924   14.8929 H       1  LIG1        0.0637
     34 N           6.9269    0.5059   13.0721 N.ar    1  LIG1       -0.2842
     35 N           9.1383    0.6407   13.4672 N.ar    1  LIG1       -0.2258
     36 O           6.6499    4.3257   13.5506 O.2     1  LIG1       -0.1628
     37 O           4.8685    2.7739   12.8193 O.2     1  LIG1       -0.1628
     38 S           6.0274    3.0443   13.6144 S.O2    1  LIG1        0.0428
     39 C          10.0770   -1.3448   10.1615 C.ar    2  LIG2        0.0130
     40 H          10.8574   -0.8828   10.3712 H       2  LIG2        0.0814
     41 C          10.0517   -2.6916   10.1789 C.ar    2  LIG2       -0.0450
     42 H          10.8285   -3.1606   10.3827 H       2  LIG2        0.0632
     43 C           8.8735   -3.3986    9.8964 C.ar    2  LIG2       -0.0569
     44 H           8.8761   -4.3286    9.9087 H       2  LIG2        0.0619
     45 C           7.7237   -2.7297    9.6042 C.ar    2  LIG2       -0.0187
     46 H           6.9339   -3.1947    9.4463 H       2  LIG2        0.0654
     47 C           7.7471   -1.3257    9.5447 C.ar    2  LIG2        0.1397
     48 C           8.6466    0.6940    9.7004 C.ar    2  LIG2        0.1945
     49 C           7.3137    0.7623    9.3089 C.ar    2  LIG2        0.1158
     50 C           6.5038    1.9403    8.9309 C.ar    2  LIG2        0.0038
     51 C           5.8026    1.8961    7.7306 C.ar    2  LIG2       -0.0525
     52 H           5.8658    1.1459    7.1843 H       2  LIG2        0.0624
     53 C           5.0141    2.9587    7.3439 C.ar    2  LIG2       -0.0611
     54 H           4.5616    2.9306    6.5318 H       2  LIG2        0.0618
     55 C           4.8963    4.0574    8.1559 C.ar    2  LIG2       -0.0617
     56 H           4.3647    4.7735    7.8917 H       2  LIG2        0.0618
     57 C           5.5571    4.1046    9.3503 C.ar    2  LIG2       -0.0611
     58 H           5.4556    4.8438    9.9064 H       2  LIG2        0.0618
     59 C           6.3749    3.0601    9.7391 C.ar    2  LIG2       -0.0525
     60 H           6.8391    3.1083   10.5429 H       2  LIG2        0.0624
     61 C          10.4394    1.6169    7.8427 C.ar    2  LIG2        0.0953
     62 C           9.7211    2.1733    6.8026 C.ar    2  LIG2       -0.0364
     63 H           8.9718    2.6976    6.9691 H       2  LIG2        0.0637
     64 C          10.1421    1.9313    5.5013 C.ar    2  LIG2       -0.0599
     65 H           9.6839    2.3109    4.7872 H       2  LIG2        0.0618
     66 C          11.2393    1.1248    5.2687 C.ar    2  LIG2       -0.0616
     67 H          11.4924    0.9330    4.3957 H       2  LIG2        0.0618
     68 C          11.9529    0.6116    6.3040 C.ar    2  LIG2       -0.0599
     69 H          12.7093    0.0964    6.1380 H       2  LIG2        0.0618
     70 C          11.5530    0.8547    7.6076 C.ar    2  LIG2       -0.0364
     71 H          12.0362    0.5022    8.3199 H       2  LIG2        0.0637
     72 N           8.9308   -0.6637    9.8284 N.ar    2  LIG2       -0.2842
     73 N           6.7679   -0.4710    9.2356 N.ar    2  LIG2       -0.2258
     74 O           9.3002    3.1702    9.5857 O.2     2  LIG2       -0.1628
     75 O          10.9940    1.5627   10.3678 O.2     2  LIG2       -0.1628
     76 S           9.9045    1.8802    9.5079 S.O2    2  LIG2        0.0428
@<TRIPOS>BOND
     1    67    66    1
     2    65    64    1
     3    66    64   ar
     4    66    68   ar
     5    64    62   ar
     6    69    68    1
     7    68    70   ar
     8    54    53    1
     9    62    63    1
    10    62    61   ar
    11    52    51    1
    12    53    51   ar
    13    53    55   ar
    14    70    61   ar
    15    70    71    1
    16    51    50   ar
    17    61    76    1
    18    56    55    1
    19    55    57   ar
    20    50    49    1
    21    50    59   ar
    22    73    49   ar
    23    73    47   ar
    24    49    48   ar
    25    57    59   ar
    26    57    58    1
    27    46    45    1
    28    76    74    2
    29    76    48    1
    30    76    75    2
    31    47    45   ar
    32    47    72   ar
    33    45    43   ar
    34    48    72   ar
    35    59    60    1
    36    72    39   ar
    37    43    44    1
    38    43    41   ar
    39    39    41   ar
    40    39    40    1
    41    41    42    1
    42    14    13    1
    43     4     3    1
    44     3     1   ar
    45     3     5   ar
    46     2     1    1
    47     6     5    1
    48     1    34   ar
    49    37    38    2
    50     5     7   ar
    51    16    15    1
    52     7     8    1
    53     7     9   ar
    54    34     9   ar
    55    34    10   ar
    56    13    15   ar
    57    13    12   ar
    58     9    35   ar
    59    10    11   ar
    60    10    38    1
    61    35    11   ar
    62    15    17   ar
    63    11    12    1
    64    36    38    2
    65    38    23    1
    66    12    21   ar
    67    17    18    1
    68    17    19   ar
    69    33    32    1
    70    21    19   ar
    71    21    22    1
    72    23    32   ar
    73    23    24   ar
    74    19    20    1
    75    32    30   ar
    76    25    24    1
    77    24    26   ar
    78    30    31    1
    79    30    28   ar
    80    26    28   ar
    81    26    27    1
    82    28    29    1
