@<TRIPOS>MOLECULE
C4 H8 F2 N, Cl
 12 10 0 0 0
SMALL
GASTEIGER

@<TRIPOS>ATOM
      1 F           3.0080    4.2505    1.5438 F       1  LIG1       -0.1991
      2 F           3.0080    4.3467   -0.6126 F       1  LIG1       -0.1991
      3 N           3.0080    0.1109    0.2256 N.3     1  LIG1       -0.3258
      4 C           3.0080    1.4234    0.8908 C.3     1  LIG1        0.0260
      5 C           1.9233    2.4149    0.4404 C.3     1  LIG1        0.0334
      6 H           1.5365    2.2164   -0.4486 H       1  LIG1        0.0340
      7 H           1.2154    2.5748    1.1141 H       1  LIG1        0.0340
      8 C           3.0080    3.4647    0.4229 C.3     1  LIG1        0.3120
      9 H           2.2440   -0.3651    0.4496 H       1  LIG1        0.1185
     10 H           3.0080    1.3061    1.6993 H       1  LIG1        0.0475
     11 H           3.0080    0.2247   -0.6096 H       1  LIG1        0.1185
     12 CL         -0.0000   -0.7573    0.9245 Cl      2  LIG2        0.0000
@<TRIPOS>BOND
     1     2     8    1
     2    11     3    1
     3     6     5    1
     4     3     9    1
     5     3     4    1
     6     8     5    1
     7     8     1    1
     8     5     4    1
     9     5     7    1
    10     4    10    1
