@<TRIPOS>MOLECULE
C13 H14 Cl N O
 30 32 0 0 0
SMALL
GASTEIGER

@<TRIPOS>ATOM
      1 CL          4.6386    7.6691    2.0255 Cl      1  LIG1       -0.0628
      2 O           0.9561    6.6558    2.6478 O.2     1  LIG1       -0.3893
      3 N           2.2414    6.8381    2.1017 N.2     1  LIG1       -0.0764
      4 C           3.0886    7.4647    2.8078 C.2     1  LIG1        0.1529
      5 C           2.9673    8.0728    4.1780 C.3     1  LIG1        0.0467
      6 H           3.2179    9.0388    4.1090 H       1  LIG1        0.0426
      7 C           1.4970    7.9980    4.6250 C.3     1  LIG1        0.0118
      8 H           1.4634    7.9840    5.6250 H       1  LIG1        0.0347
      9 C           0.5967    9.1254    4.1144 C.3     1  LIG1       -0.0457
     10 H           0.7632    9.3066    3.1551 H       1  LIG1        0.0269
     11 H           0.7421    9.9581    4.6302 H       1  LIG1        0.0269
     12 C          -0.8240    8.5813    4.3345 C.3     1  LIG1       -0.0492
     13 H          -1.4331    8.9014    3.6221 H       1  LIG1        0.0267
     14 H          -1.1771    8.8752    5.2110 H       1  LIG1        0.0267
     15 C          -0.6962    7.0424    4.2893 C.3     1  LIG1       -0.0129
     16 H          -1.0176    6.6410    5.1356 H       1  LIG1        0.0302
     17 H          -1.2253    6.6712    3.5401 H       1  LIG1        0.0302
     18 C           0.7898    6.7564    4.0906 C.3     1  LIG1        0.1321
     19 H           1.0800    5.9242    4.5627 H       1  LIG1        0.0763
     20 C           3.9318    7.4087    5.1490 C.ar    1  LIG1       -0.0371
     21 C           4.7602    8.1972    5.9468 C.ar    1  LIG1       -0.0579
     22 H           4.7452    9.1430    5.8565 H       1  LIG1        0.0620
     23 C           5.6071    7.6024    6.8732 C.ar    1  LIG1       -0.0615
     24 H           6.1687    8.1428    7.4163 H       1  LIG1        0.0618
     25 C           5.6366    6.2186    7.0100 C.ar    1  LIG1       -0.0617
     26 H           6.2124    5.8161    7.6491 H       1  LIG1        0.0618
     27 C           4.8216    5.4264    6.2100 C.ar    1  LIG1       -0.0615
     28 H           4.8425    4.4809    6.2957 H       1  LIG1        0.0618
     29 C           3.9791    6.0220    5.2876 C.ar    1  LIG1       -0.0579
     30 H           3.4249    5.4782    4.7400 H       1  LIG1        0.0620
@<TRIPOS>BOND
     1     1     4    1
     2     3     2    1
     3     3     4    2
     4     2    18    1
     5     4     5    1
     6    10     9    1
     7    17    15    1
     8    13    12    1
     9    18    15    1
    10    18    19    1
    11    18     7    1
    12     6     5    1
    13     9    12    1
    14     9     7    1
    15     9    11    1
    16     5     7    1
    17     5    20    1
    18    15    12    1
    19    15    16    1
    20    12    14    1
    21     7     8    1
    22    30    29    1
    23    20    29   ar
    24    20    21   ar
    25    29    27   ar
    26    22    21    1
    27    21    23   ar
    28    27    28    1
    29    27    25   ar
    30    23    25   ar
    31    23    24    1
    32    25    26    1
