@<TRIPOS>MOLECULE
C16 H14 O2 S
 33 35 0 0 0
SMALL
GASTEIGER

@<TRIPOS>ATOM
      1 S           0.6176    7.4667   11.1555 S.O2    1  LIG1        0.0007
      2 O          -0.6303    6.9466   10.6962 O.2     1  LIG1       -0.1690
      3 O           0.8814    8.8491   10.9373 O.2     1  LIG1       -0.1690
      4 C           0.7708    7.1200   12.8780 C.ar    1  LIG1        0.0885
      5 C           2.0630    7.3333    6.7430 C.ar    1  LIG1       -0.0215
      6 C           1.3117    6.1677    6.7266 C.ar    1  LIG1       -0.0362
      7 C           2.4361    7.6282    8.1478 C.2     1  LIG1       -0.0532
      8 H           2.9443    8.3448    8.4523 H       1  LIG1        0.0624
      9 C           1.5937    7.9188   13.6464 C.ar    1  LIG1       -0.0369
     10 H           2.0720    8.6179   13.2611 H       1  LIG1        0.0636
     11 C           1.1690    5.6772    8.1168 C.3     1  LIG1       -0.0041
     12 H           0.2331    5.6379    8.3689 H       1  LIG1        0.0359
     13 H           1.5525    4.7902    8.2049 H       1  LIG1        0.0359
     14 C           1.8618    6.5981    8.9317 C.2     1  LIG1       -0.0436
     15 C           0.8353    5.6564    5.5303 C.ar    1  LIG1       -0.0577
     16 H           0.3411    4.8688    5.5158 H       1  LIG1        0.0621
     17 C           1.9301    6.5031   10.4206 C.3     1  LIG1        0.0925
     18 H           2.7895    6.8319   10.7301 H       1  LIG1        0.0551
     19 H           1.8463    5.5756   10.6920 H       1  LIG1        0.0551
     20 C           0.0701    6.0694   13.4158 C.ar    1  LIG1       -0.0369
     21 H          -0.4659    5.5308   12.8790 H       1  LIG1        0.0636
     22 C           2.3393    8.0062    5.5644 C.ar    1  LIG1       -0.0543
     23 H           2.8456    8.7862    5.5700 H       1  LIG1        0.0624
     24 C           1.8461    7.4906    4.3761 C.ar    1  LIG1       -0.0612
     25 H           2.0199    7.9341    3.5777 H       1  LIG1        0.0618
     26 C           1.1053    6.3370    4.3621 C.ar    1  LIG1       -0.0615
     27 H           0.7808    6.0093    3.5542 H       1  LIG1        0.0618
     28 C           1.6921    7.6566   15.0042 C.ar    1  LIG1       -0.0600
     29 H           2.2430    8.1777   15.5418 H       1  LIG1        0.0618
     30 C           0.9768    6.6287   15.5516 C.ar    1  LIG1       -0.0616
     31 H           1.0315    6.4692   16.4654 H       1  LIG1        0.0618
     32 C           0.1781    5.8280   14.7703 C.ar    1  LIG1       -0.0600
     33 H          -0.2900    5.1223   15.1538 H       1  LIG1        0.0618
@<TRIPOS>BOND
     1    27    26    1
     2    25    24    1
     3    26    24   ar
     4    26    15   ar
     5    24    22   ar
     6    16    15    1
     7    15     6   ar
     8    22    23    1
     9    22     5   ar
    10     6     5   ar
    11     6    11    1
    12     5     7    1
    13    11    13    1
    14    11    12    1
    15    11    14    1
    16     7     8    1
    17     7    14    2
    18    14    17    1
    19    17    19    1
    20    17    18    1
    21    17     1    1
    22     2     1    2
    23     3     1    2
    24     1     4    1
    25     4    20   ar
    26     4     9   ar
    27    21    20    1
    28    10     9    1
    29    20    32   ar
    30     9    28   ar
    31    32    33    1
    32    32    30   ar
    33    28    29    1
    34    28    30   ar
    35    30    31    1
