@<TRIPOS>MOLECULE
C19 H15 N O2
 37 40 0 0 0
SMALL
GASTEIGER

@<TRIPOS>ATOM
      1 O          -0.3288   21.6359    6.7589 O.2     1  LIG1       -0.2745
      2 O          -3.7777   24.9106    7.1048 O.2     1  LIG1       -0.4583
      3 N          -2.5269   21.0579    6.9605 N.am    1  LIG1       -0.2870
      4 C          -0.2533   18.5251   10.6780 C.ar    1  LIG1       -0.0617
      5 H           0.1583   18.2777   11.4978 H       1  LIG1        0.0618
      6 C           0.1418   17.9320    9.5008 C.ar    1  LIG1       -0.0615
      7 H           0.8222   17.2691    9.5078 H       1  LIG1        0.0618
      8 C          -0.4531   18.3017    8.3040 C.ar    1  LIG1       -0.0571
      9 H          -0.1734   17.8912    7.4943 H       1  LIG1        0.0621
     10 C          -1.4525   19.2645    8.2746 C.ar    1  LIG1       -0.0301
     11 C          -1.8466   19.8456    9.4694 C.ar    1  LIG1       -0.0571
     12 H          -2.5339   20.5012    9.4684 H       1  LIG1        0.0621
     13 C          -1.2504   19.4820   10.6638 C.ar    1  LIG1       -0.0615
     14 H          -1.5270   19.8907   11.4755 H       1  LIG1        0.0618
     15 C          -2.1033   19.6546    6.9667 C.3     1  LIG1        0.0404
     16 H          -1.4627   19.5044    6.2269 H       1  LIG1        0.0514
     17 H          -2.8909   19.0759    6.8095 H       1  LIG1        0.0514
     18 C          -1.5005   22.0212    6.8820 C.2     1  LIG1        0.2311
     19 C          -1.8946   23.4026    6.9580 C.3     1  LIG1        0.1226
     20 C          -0.8342   24.4573    6.9320 C.3     1  LIG1       -0.0428
     21 H          -0.5348   24.5969    6.0093 H       1  LIG1        0.0244
     22 H          -0.0752   24.1712    7.4819 H       1  LIG1        0.0244
     23 H          -1.1979   25.2949    7.2877 H       1  LIG1        0.0244
     24 C          -3.2285   23.6491    7.0397 C.ar    1  LIG1        0.1274
     25 C          -5.1550   24.7255    7.1305 C.ar    1  LIG1        0.1356
     26 C          -6.0709   25.7541    7.2046 C.ar    1  LIG1       -0.0187
     27 H          -5.8014   26.6644    7.2404 H       1  LIG1        0.0654
     28 C          -7.4097   25.3839    7.2243 C.ar    1  LIG1       -0.0582
     29 H          -8.0778   26.0566    7.2826 H       1  LIG1        0.0619
     30 C          -7.7906   24.0505    7.1604 C.ar    1  LIG1       -0.0610
     31 H          -8.7148   23.8307    7.1573 H       1  LIG1        0.0618
     32 C          -6.8499   23.0308    7.1010 C.ar    1  LIG1       -0.0507
     33 H          -7.1191   22.1204    7.0670 H       1  LIG1        0.0625
     34 C          -5.5034   23.3769    7.0927 C.ar    1  LIG1        0.0255
     35 C          -4.2412   22.6582    7.0520 C.ar    1  LIG1        0.0248
     36 C          -3.8596   21.3528    7.0190 C.3     1  LIG1        0.0781
     37 H          -4.5083   20.6589    7.0363 H       1  LIG1        0.0574
@<TRIPOS>BOND
     1    21    20    1
     2    16    15    1
     3     1    18    2
     4    17    15    1
     5    18    19    1
     6    18     3   am
     7    20    19    1
     8    20    23    1
     9    20    22    1
    10    19    24    1
    11     3    15    1
    12     3    36    1
    13    15    10    1
    14    36    37    1
    15    36    35    1
    16    24    35   ar
    17    24     2   ar
    18    35    34   ar
    19    33    32    1
    20    34    32   ar
    21    34    25   ar
    22    32    30   ar
    23     2    25   ar
    24    25    26   ar
    25    31    30    1
    26    30    28   ar
    27    26    28   ar
    28    26    27    1
    29    28    29    1
    30     9     8    1
    31    10     8   ar
    32    10    11   ar
    33     8     6   ar
    34    12    11    1
    35    11    13   ar
    36     6     7    1
    37     6     4   ar
    38    13     4   ar
    39    13    14    1
    40     4     5    1
