@<TRIPOS>MOLECULE
C12 H18 O7
 37 38 0 0 0
SMALL
GASTEIGER

@<TRIPOS>ATOM
      1 O           4.6464    2.0184    7.4694 O.3     1  LIG1       -0.1957
      2 O           3.3102    1.3866    7.4631 O.3     1  LIG1       -0.1968
      3 O           3.8050    1.9976    9.5552 O.3     1  LIG1       -0.3112
      4 O           3.9321    6.9654    9.0923 O.2     1  LIG1       -0.2510
      5 O           3.6131    6.6577   11.2799 O.3     1  LIG1       -0.4806
      6 H           3.4308    7.4855   11.2556 H       1  LIG1        0.2951
      7 O           5.4176    5.0717    6.6504 O.2     1  LIG1       -0.2500
      8 O           6.3833    5.3455    8.6549 O.3     1  LIG1       -0.4644
      9 C           4.3414    4.1659    8.6262 C.3     1  LIG1        0.1338
     10 C           3.0134    4.1904    7.8510 C.3     1  LIG1       -0.0266
     11 H           2.6338    5.0824    7.8863 H       1  LIG1        0.0279
     12 H           3.1768    3.9694    6.9204 H       1  LIG1        0.0279
     13 C           2.0238    3.1902    8.4484 C.3     1  LIG1        0.0052
     14 H           1.6854    3.5324    9.2901 H       1  LIG1        0.0318
     15 H           1.2730    3.0774    7.8454 H       1  LIG1        0.0318
     16 C           2.6941    1.8489    8.6796 C.3     1  LIG1        0.2032
     17 C           4.7577    2.6597    8.7592 C.3     1  LIG1        0.2191
     18 C           4.1795    4.7568   10.0338 C.3     1  LIG1        0.0656
     19 H           3.4526    4.2960   10.4806 H       1  LIG1        0.0390
     20 H           4.9905    4.5836   10.5368 H       1  LIG1        0.0390
     21 C           3.9018    6.2357   10.0677 C.2     1  LIG1        0.3059
     22 C           5.4154    4.9149    7.8413 C.2     1  LIG1        0.3192
     23 C           7.4265    6.1641    8.0693 C.3     1  LIG1        0.0897
     24 H           7.0452    6.9526    7.6524 H       1  LIG1        0.0694
     25 H           7.9136    5.6625    7.3972 H       1  LIG1        0.0694
     26 C           8.3378    6.5547    9.1961 C.3     1  LIG1       -0.0306
     27 H           7.8406    7.0468    9.8537 H       1  LIG1        0.0262
     28 H           9.0499    7.1021    8.8572 H       1  LIG1        0.0262
     29 H           8.7058    5.7649    9.5985 H       1  LIG1        0.0262
     30 C           6.1514    2.3730    9.2582 C.3     1  LIG1       -0.0066
     31 H           6.2870    2.8142   10.0998 H       1  LIG1        0.0282
     32 H           6.7925    2.6956    8.6204 H       1  LIG1        0.0282
     33 H           6.2623    1.4266    9.3718 H       1  LIG1        0.0282
     34 C           1.7855    0.7612    9.1884 C.3     1  LIG1       -0.0077
     35 H           2.3023   -0.0260    9.3769 H       1  LIG1        0.0282
     36 H           1.1251    0.5589    8.5223 H       1  LIG1        0.0282
     37 H           1.3501    1.0578    9.9906 H       1  LIG1        0.0282
@<TRIPOS>BOND
     1     7    22    2
     2    12    10    1
     3    25    23    1
     4     2     1    1
     5     2    16    1
     6     1    17    1
     7    24    23    1
     8    22     9    1
     9    22     8    1
    10    15    13    1
    11    10    11    1
    12    10    13    1
    13    10     9    1
    14    23     8    1
    15    23    26    1
    16    13    16    1
    17    13    14    1
    18    36    34    1
    19    32    30    1
    20     9    17    1
    21     9    18    1
    22    16    34    1
    23    16     3    1
    24    17    30    1
    25    17     3    1
    26    28    26    1
    27     4    21    2
    28    34    35    1
    29    34    37    1
    30    26    29    1
    31    26    27    1
    32    30    33    1
    33    30    31    1
    34    18    21    1
    35    18    19    1
    36    18    20    1
    37    21     5    1
    38     6     5    1
