@<TRIPOS>MOLECULE
1.33(C7 H6 N2 S)
 16 16 0 0 0
SMALL
GASTEIGER

@<TRIPOS>ATOM
      1 S           0.7205   14.0327    4.0248 S.2     1  LIG1       -0.0729
      2 C           1.4307   15.0354    5.2507 C.ar    1  LIG1        0.0757
      3 N          -0.2931    8.4186    2.9162 N.1     1  LIG1       -0.1915
      4 C           0.1889   10.9054    3.4459 C.2     1  LIG1        0.0165
      5 H          -0.1244   11.5713    2.8462 H       1  LIG1        0.0733
      6 C           1.1740   12.6270    4.9366 C.ar    1  LIG1        0.0326
      7 C          -0.0751    9.5226    3.1653 C.1     1  LIG1        0.0914
      8 C           1.4340   16.5184    5.1358 C.3     1  LIG1       -0.0159
      9 H           2.3413   16.8276    4.9333 H       1  LIG1        0.0298
     10 H           1.1354   16.9115    5.9820 H       1  LIG1        0.0298
     11 H           0.8273   16.7907    4.4162 H       1  LIG1        0.0298
     12 C           0.8694   11.2715    4.5410 C.2     1  LIG1       -0.0363
     13 H           1.1803   10.5759    5.1087 H       1  LIG1        0.0636
     14 N           1.9552   14.3777    6.2584 N.ar    1  LIG1       -0.2520
     15 C           1.8084   13.0369    6.0683 C.ar    1  LIG1        0.0422
     16 H           2.1372   12.4106    6.7030 H       1  LIG1        0.0841
@<TRIPOS>BOND
     1     5     4    1
     2     3     7    3
     3     7     4    1
     4     4    12    2
     5     1     6   ar
     6     1     2   ar
     7    11     8    1
     8    12     6    1
     9    12    13    1
    10     9     8    1
    11     6    15   ar
    12     8     2    1
    13     8    10    1
    14     2    14   ar
    15    15    14   ar
    16    15    16    1
