@<TRIPOS>MOLECULE
C19 H22 O2
 43 44 0 0 0
SMALL
GASTEIGER

@<TRIPOS>ATOM
      1 O           4.9004    1.1119   12.0543 O.3     1  LIG1       -0.4951
      2 O           0.9345   -0.8588   16.6471 O.2     1  LIG1       -0.2970
      3 C          -0.3333    1.5632   21.4190 C.ar    1  LIG1       -0.0617
      4 H          -0.6759    1.6122   22.3049 H       1  LIG1        0.0618
      5 C           0.4132    0.4675   21.0132 C.ar    1  LIG1       -0.0615
      6 H           0.5941   -0.2398   21.6217 H       1  LIG1        0.0618
      7 C           0.8979    0.4104   19.7009 C.ar    1  LIG1       -0.0579
      8 H           1.4039   -0.3430   19.4195 H       1  LIG1        0.0620
      9 C           0.6472    1.4456   18.8010 C.ar    1  LIG1       -0.0366
     10 C           1.1666    1.4479   17.3503 C.3     1  LIG1        0.0490
     11 H           0.8449    2.2872   16.9121 H       1  LIG1        0.0432
     12 C           2.6818    1.4427   17.2811 C.3     1  LIG1       -0.0026
     13 H           2.9850    0.6254   17.7704 H       1  LIG1        0.0359
     14 C           3.1907    1.3073   15.8555 C.ar    1  LIG1       -0.0431
     15 C           3.9672    0.2179   15.5021 C.ar    1  LIG1       -0.0548
     16 H           4.1085   -0.4732   16.1387 H       1  LIG1        0.0622
     17 C           4.5452    0.1049   14.2465 C.ar    1  LIG1       -0.0197
     18 H           5.0723   -0.6554   14.0301 H       1  LIG1        0.0654
     19 C           4.3494    1.1061   13.3110 C.ar    1  LIG1        0.1201
     20 C           5.7564    0.0156   11.7394 C.3     1  LIG1        0.0788
     21 H           6.1292    0.1395   10.8412 H       1  LIG1        0.0660
     22 H           5.2433   -0.8185   11.7689 H       1  LIG1        0.0660
     23 H           6.4857   -0.0271   12.3914 H       1  LIG1        0.0660
     24 C           2.9816    2.2964   14.8862 C.ar    1  LIG1       -0.0548
     25 H           2.4395    3.0474   15.0983 H       1  LIG1        0.0622
     26 C           3.5477    2.2018   13.6268 C.ar    1  LIG1       -0.0197
     27 H           3.3917    2.8808   12.9810 H       1  LIG1        0.0654
     28 C           3.3086    2.6313   17.9927 C.3     1  LIG1       -0.0481
     29 H           2.8844    3.4549   17.6456 H       1  LIG1        0.0269
     30 H           3.0828    2.5667   18.9548 H       1  LIG1        0.0269
     31 C           4.7784    2.7915   17.8776 C.3     1  LIG1       -0.0647
     32 H           5.0219    2.9183   16.9363 H       1  LIG1        0.0230
     33 H           5.2226    1.9892   18.2230 H       1  LIG1        0.0230
     34 H           5.0636    3.5719   18.3964 H       1  LIG1        0.0230
     35 C           0.5134    0.2582   16.6251 C.2     1  LIG1        0.1382
     36 C          -0.7066    0.6087   15.8456 C.3     1  LIG1       -0.0054
     37 H          -0.4490    1.1228   15.0514 H       1  LIG1        0.0306
     38 H          -1.3083    1.1465   16.4023 H       1  LIG1        0.0306
     39 H          -1.1646   -0.2121   15.5682 H       1  LIG1        0.0306
     40 C          -0.5732    2.5811   20.5183 C.ar    1  LIG1       -0.0615
     41 H          -1.0833    3.3345   20.7911 H       1  LIG1        0.0618
     42 C          -0.0861    2.5235   19.2320 C.ar    1  LIG1       -0.0579
     43 H          -0.2593    3.2405   18.6340 H       1  LIG1        0.0620
@<TRIPOS>BOND
     1    21    20    1
     2    20    22    1
     3    20     1    1
     4    20    23    1
     5     1    19    1
     6    27    26    1
     7    19    26   ar
     8    19    17   ar
     9    26    24   ar
    10    18    17    1
    11    17    15   ar
    12    24    25    1
    13    24    14   ar
    14    37    36    1
    15    15    14   ar
    16    15    16    1
    17    39    36    1
    18    36    38    1
    19    36    35    1
    20    14    12    1
    21    35     2    2
    22    35    10    1
    23    11    10    1
    24    32    31    1
    25    12    10    1
    26    12    13    1
    27    12    28    1
    28    10     9    1
    29    29    28    1
    30    31    28    1
    31    31    33    1
    32    31    34    1
    33    28    30    1
    34    43    42    1
    35     9    42   ar
    36     9     7   ar
    37    42    40   ar
    38     8     7    1
    39     7     5   ar
    40    40    41    1
    41    40     3   ar
    42     5     3   ar
    43     5     6    1
    44     3     4    1
