@<TRIPOS>MOLECULE
C36 H35 Cl N2 O3
 77 82 0 0 0
SMALL
GASTEIGER

@<TRIPOS>ATOM
      1 CL          7.5493   13.4179    3.9427 Cl      1  LIG1       -0.0835
      2 O           1.5048   17.0809    4.9986 O.3     1  LIG1       -0.4727
      3 O          -0.6235   15.9674    3.3292 O.2     1  LIG1       -0.2694
      4 O           4.6242   11.4987    8.2276 O.3     1  LIG1       -0.5062
      5 N           1.1874   14.7287    2.5662 N.am    1  LIG1       -0.1828
      6 N           2.5340   14.5958    2.9387 N.3     1  LIG1       -0.1167
      7 C           0.4951   15.5224    3.4476 C.2     1  LIG1        0.2820
      8 C           1.4257   15.6914    4.6513 C.3     1  LIG1        0.2253
      9 C           2.7137   15.1549    4.0879 C.3     1  LIG1        0.1606
     10 C           4.0408   15.1684    4.6933 C.ar    1  LIG1       -0.0161
     11 C           5.0628   14.4266    4.1031 C.ar    1  LIG1       -0.0381
     12 H           4.8975   13.9471    3.3230 H       1  LIG1        0.0635
     13 C           6.3088   14.4021    4.6703 C.ar    1  LIG1        0.0413
     14 C           6.6025   15.1068    5.8039 C.ar    1  LIG1       -0.0434
     15 H           7.4571   15.0772    6.1697 H       1  LIG1        0.0632
     16 C           5.6093   15.8608    6.3961 C.ar    1  LIG1       -0.0601
     17 H           5.7993   16.3519    7.1621 H       1  LIG1        0.0618
     18 C           4.3202   15.8936    5.8541 C.ar    1  LIG1       -0.0564
     19 H           3.6525   16.3946    6.2639 H       1  LIG1        0.0621
     20 C           0.7899   14.9222    5.8856 C.3     1  LIG1        0.0635
     21 H           0.0154   14.4136    5.5667 H       1  LIG1        0.0443
     22 C           0.2855   16.1086    6.6902 C.ar    1  LIG1        0.0061
     23 C           0.7313   17.2794    6.1294 C.ar    1  LIG1        0.1261
     24 C           0.4561   18.5184    6.6496 C.ar    1  LIG1       -0.0196
     25 H           0.7663   19.2987    6.2494 H       1  LIG1        0.0654
     26 C          -0.3123   18.5464    7.8122 C.ar    1  LIG1       -0.0583
     27 H          -0.5218   19.3660    8.1998 H       1  LIG1        0.0619
     28 C          -0.7652   17.3982    8.3917 C.ar    1  LIG1       -0.0613
     29 H          -1.2788   17.4458    9.1668 H       1  LIG1        0.0618
     30 C          -0.4684   16.1630    7.8450 C.ar    1  LIG1       -0.0544
     31 H          -0.7714   15.3811    8.2486 H       1  LIG1        0.0622
     32 C           1.7184   13.9733    6.6085 C.ar    1  LIG1       -0.0347
     33 C           2.1087   12.7995    5.9752 C.ar    1  LIG1       -0.0507
     34 H           1.7051   12.5740    5.1683 H       1  LIG1        0.0625
     35 C           3.0722   11.9545    6.4924 C.ar    1  LIG1       -0.0000
     36 C           3.6258   12.3136    7.7349 C.ar    1  LIG1        0.1242
     37 C           3.1924   13.4279    8.4611 C.ar    1  LIG1       -0.0000
     38 C           2.2536   14.2537    7.8546 C.ar    1  LIG1       -0.0507
     39 H           1.9752   15.0198    8.3012 H       1  LIG1        0.0625
     40 C           3.5354   10.7003    5.7337 C.3     1  LIG1       -0.0092
     41 C           3.4173    9.4379    6.5917 C.3     1  LIG1       -0.0559
     42 H           4.0254    9.4958    7.3323 H       1  LIG1        0.0238
     43 H           3.6330    8.6679    6.0611 H       1  LIG1        0.0238
     44 H           2.5186    9.3578    6.9213 H       1  LIG1        0.0238
     45 C           4.9868   10.8887    5.2706 C.3     1  LIG1       -0.0559
     46 H           5.0392   11.6459    4.6812 H       1  LIG1        0.0238
     47 H           5.2796   10.1019    4.8061 H       1  LIG1        0.0238
     48 H           5.5497   11.0381    6.0339 H       1  LIG1        0.0238
     49 C           2.6726   10.4780    4.4700 C.3     1  LIG1       -0.0559
     50 H           1.7513   10.3893    4.7228 H       1  LIG1        0.0238
     51 H           2.9602    9.6797    4.0220 H       1  LIG1        0.0238
     52 H           2.7713   11.2287    3.8789 H       1  LIG1        0.0238
     53 C           3.7029   13.7476    9.8872 C.3     1  LIG1       -0.0092
     54 C           5.2015   14.0933    9.8712 C.3     1  LIG1       -0.0559
     55 H           5.7068   13.3180    9.6123 H       1  LIG1        0.0238
     56 H           5.4747   14.3759   10.7477 H       1  LIG1        0.0238
     57 H           5.3597   14.8029    9.2428 H       1  LIG1        0.0238
     58 C           3.4297   12.5707   10.8303 C.3     1  LIG1       -0.0559
     59 H           2.4867   12.3949   10.8582 H       1  LIG1        0.0238
     60 H           3.7419   12.7875   11.7111 H       1  LIG1        0.0238
     61 H           3.8908   11.7904   10.5105 H       1  LIG1        0.0238
     62 C           2.9705   14.9557   10.4822 C.3     1  LIG1       -0.0559
     63 H           3.1636   15.7376    9.9581 H       1  LIG1        0.0238
     64 H           3.2643   15.0953   11.3851 H       1  LIG1        0.0238
     65 H           2.0245   14.7914   10.4742 H       1  LIG1        0.0238
     66 C           0.8032   14.3062    1.2682 C.ar    1  LIG1        0.0545
     67 C           1.7575   13.9816    0.3395 C.ar    1  LIG1       -0.0388
     68 H           2.6603   14.0539    0.5505 H       1  LIG1        0.0637
     69 C           1.3661   13.5431   -0.9217 C.ar    1  LIG1       -0.0600
     70 H           2.0163   13.3246   -1.5501 H       1  LIG1        0.0618
     71 C           0.0657   13.4314   -1.2490 C.ar    1  LIG1       -0.0616
     72 H          -0.1818   13.1275   -2.0916 H       1  LIG1        0.0618
     73 C          -0.8854   13.7714   -0.3296 C.ar    1  LIG1       -0.0600
     74 H          -1.7842   13.7073   -0.5596 H       1  LIG1        0.0618
     75 C          -0.5362   14.2083    0.9380 C.ar    1  LIG1       -0.0388
     76 H          -1.1925   14.4334    1.5574 H       1  LIG1        0.0637
     77 H           5.0536   11.7773    8.7829 H       1  LIG1        0.2922
@<TRIPOS>BOND
     1    72    71    1
     2    70    69    1
     3    71    69   ar
     4    71    73   ar
     5    69    67   ar
     6    74    73    1
     7    73    75   ar
     8    67    68    1
     9    67    66   ar
    10    75    66   ar
    11    75    76    1
    12    66     5    1
    13     5     6    1
    14     5     7   am
    15     6     9    1
    16    12    11    1
    17     3     7    2
    18     7     8    1
    19    52    49    1
    20     1    13    1
    21    51    49    1
    22     9     8    1
    23     9    10    1
    24    11    13   ar
    25    11    10   ar
    26    49    50    1
    27    49    40    1
    28     8     2    1
    29     8    20    1
    30    13    14   ar
    31    46    45    1
    32    10    18   ar
    33    47    45    1
    34     2    23    1
    35    34    33    1
    36    45    40    1
    37    45    48    1
    38    21    20    1
    39    40    35    1
    40    40    41    1
    41    14    15    1
    42    14    16   ar
    43    18    19    1
    44    18    16   ar
    45    20    32    1
    46    20    22    1
    47    33    35   ar
    48    33    32   ar
    49    43    41    1
    50    23    24   ar
    51    23    22   ar
    52    25    24    1
    53    16    17    1
    54    35    36   ar
    55    41    44    1
    56    41    42    1
    57    32    38   ar
    58    24    26   ar
    59    22    30   ar
    60    36     4    1
    61    36    37   ar
    62    26    27    1
    63    26    28   ar
    64    30    31    1
    65    30    28   ar
    66    38    39    1
    67    38    37   ar
    68     4    77    1
    69    28    29    1
    70    37    53    1
    71    57    54    1
    72    55    54    1
    73    54    53    1
    74    54    56    1
    75    53    62    1
    76    53    58    1
    77    63    62    1
    78    65    62    1
    79    62    64    1
    80    61    58    1
    81    58    59    1
    82    58    60    1
