@<TRIPOS>MOLECULE
4034494.cif
 64 68 0 0 0
SMALL
GASTEIGER

@<TRIPOS>ATOM
      1 S           7.5089    9.1752    6.3713 S.3     1  LIG1       -0.1041
      2 S           6.9378   11.5279    4.7390 S.3     1  LIG1       -0.1041
      3 S           1.6780   11.5114    6.5896 S.3     1  LIG1       -0.1041
      4 S           2.1709    8.9599    7.9365 S.3     1  LIG1       -0.1041
      5 S           6.5691    5.7246   -0.0938 S.3     2  LIG2       -0.1041
      6 S           4.9373    6.0833   -2.5060 S.3     2  LIG2       -0.1041
      7 S           2.2531   10.2987   -0.0126 S.3     2  LIG2       -0.1041
      8 S           4.1532   10.1690    2.2073 S.3     2  LIG2       -0.1041
      9 O           9.6603   10.9539    3.4677 O.3     1  LIG1       -0.3928
     10 H          10.1488   10.4607    2.9953 H       1  LIG1        0.2095
     11 O           1.1479   12.4275    9.7043 O.3     1  LIG1       -0.3928
     12 H           1.4038   13.0543    9.2071 H       1  LIG1        0.2095
     13 O           5.1578    2.7751   -0.2144 O.3     2  LIG2       -0.3928
     14 H           5.1077    2.9189    0.6120 H       2  LIG2        0.2095
     15 O           0.2008    9.3798    2.1429 O.3     2  LIG2       -0.3928
     16 H           0.1120    8.9486    1.4280 H       2  LIG2        0.2095
     17 C           9.3769   10.3006    4.7001 C.3     1  LIG1        0.0683
     18 H           9.6131   10.8936    5.4568 H       1  LIG1        0.0579
     19 H           9.9172    9.4745    4.7740 H       1  LIG1        0.0579
     20 C           7.8867    9.9544    4.7567 C.3     1  LIG1        0.0912
     21 C           7.4474    9.0371    3.6270 C.3     1  LIG1       -0.0384
     22 H           7.5978    9.4824    2.7669 H       1  LIG1        0.0252
     23 H           6.4947    8.8306    3.7258 H       1  LIG1        0.0252
     24 H           7.9669    8.2070    3.6599 H       1  LIG1        0.0252
     25 C           5.8369    9.7274    6.3882 C.ar    1  LIG1        0.0238
     26 C           5.5729   10.8812    5.6374 C.ar    1  LIG1        0.0238
     27 C           4.3093   11.4681    5.6635 C.ar    1  LIG1       -0.0327
     28 H           4.1310   12.2565    5.1649 H       1  LIG1        0.0640
     29 C           3.3137   10.8755    6.4352 C.ar    1  LIG1        0.0238
     30 C           3.5617    9.6782    7.1260 C.ar    1  LIG1        0.0238
     31 C           4.8299    9.1024    7.1140 C.ar    1  LIG1       -0.0327
     32 H           5.0023    8.2994    7.5922 H       1  LIG1        0.0640
     33 C           1.2890   10.5540    8.1123 C.3     1  LIG1        0.0912
     34 C           1.8464   11.2380    9.3641 C.3     1  LIG1        0.0683
     35 H           1.7970   10.6064   10.1245 H       1  LIG1        0.0579
     36 H           2.8000   11.4564    9.2144 H       1  LIG1        0.0579
     37 C          -0.2162   10.3366    8.2092 C.3     1  LIG1       -0.0384
     38 H          -0.4283    9.8929    9.0568 H       1  LIG1        0.0252
     39 H          -0.5142    9.7749    7.4627 H       1  LIG1        0.0252
     40 H          -0.6742   11.2024    8.1700 H       1  LIG1        0.0252
     41 C           6.7771    4.0304   -2.2437 C.3     2  LIG2       -0.0384
     42 H           7.2337    3.3998   -1.6491 H       2  LIG2        0.0252
     43 H           7.4309    4.6528   -2.6252 H       2  LIG2        0.0252
     44 H           6.3358    3.5366   -2.9660 H       2  LIG2        0.0252
     45 C           5.7340    4.8123   -1.4515 C.3     2  LIG2        0.0912
     46 C           4.6311    3.8879   -0.9211 C.3     2  LIG2        0.0683
     47 H           4.0364    4.4031   -0.3201 H       2  LIG2        0.0579
     48 H           4.0873    3.5625   -1.6809 H       2  LIG2        0.0579
     49 C           5.3856    7.0221   -0.0381 C.ar    2  LIG2        0.0238
     50 C           4.5480    7.1492   -1.1545 C.ar    2  LIG2        0.0238
     51 C           3.5354    8.1080   -1.1724 C.ar    2  LIG2       -0.0327
     52 H           2.9241    8.1534   -1.8983 H       2  LIG2        0.0640
     53 C           3.4386    8.9990   -0.1043 C.ar    2  LIG2        0.0238
     54 C           4.3289    8.9198    0.9780 C.ar    2  LIG2        0.0238
     55 C           5.2797    7.9066    1.0296 C.ar    2  LIG2       -0.0327
     56 H           5.8500    7.8195    1.7847 H       2  LIG2        0.0640
     57 C           2.3981   10.4815    1.8047 C.3     2  LIG2        0.0912
     58 C           1.9973   11.8871    2.2314 C.3     2  LIG2       -0.0384
     59 H           1.0542   12.0389    2.0095 H       2  LIG2        0.0252
     60 H           2.5538   12.5423    1.7603 H       2  LIG2        0.0252
     61 H           2.1254   11.9837    3.1981 H       2  LIG2        0.0252
     62 C           1.5765    9.3982    2.5204 C.3     2  LIG2        0.0683
     63 H           1.9742    8.5127    2.3222 H       2  LIG2        0.0579
     64 H           1.6384    9.5443    3.4974 H       2  LIG2        0.0579
@<TRIPOS>BOND
     1    44    41    1
     2    43    41    1
     3     6    45    1
     4     6    50    1
     5    41    42    1
     6    41    45    1
     7    52    51    1
     8    48    46    1
     9    45    46    1
    10    45     5    1
    11    51    50   ar
    12    51    53   ar
    13    50    49   ar
    14    46    47    1
    15    46    13    1
    16    13    14    1
    17    53     7    1
    18    53    54   ar
    19     5    49    1
    20    49    55   ar
    21     7    57    1
    22    54    55   ar
    23    54     8    1
    24    55    56    1
    25    16    15    1
    26    60    58    1
    27    57     8    1
    28    57    58    1
    29    57    62    1
    30    59    58    1
    31    15    62    1
    32    58    61    1
    33    63    62    1
    34    62    64    1
    35    22    21    1
    36    10     9    1
    37     9    17    1
    38    21    24    1
    39    21    23    1
    40    21    20    1
    41    17    20    1
    42    17    19    1
    43    17    18    1
    44     2    20    1
    45     2    26    1
    46    20     1    1
    47    28    27    1
    48    26    27   ar
    49    26    25   ar
    50    27    29   ar
    51     1    25    1
    52    25    31   ar
    53    29     3    1
    54    29    30   ar
    55     3    33    1
    56    31    30   ar
    57    31    32    1
    58    30     4    1
    59    39    37    1
    60     4    33    1
    61    33    37    1
    62    33    34    1
    63    40    37    1
    64    37    38    1
    65    12    11    1
    66    36    34    1
    67    34    11    1
    68    34    35    1
