@<TRIPOS>MOLECULE
4034795.cif
 37 38 0 0 0
SMALL
GASTEIGER

@<TRIPOS>ATOM
      1 S          -0.4878    5.7448   14.9210 S.3     1  LIG1       -0.1439
      2 N           0.0050    2.7603   12.2351 N.am    1  LIG1       -0.2094
      3 O          -0.6977    4.8953   12.0713 O.2     1  LIG1       -0.2731
      4 O          -2.8361    3.3536   14.0518 O.2     1  LIG1       -0.2954
      5 O          -0.2254    1.4361   14.0713 O.2     1  LIG1       -0.2751
      6 C          -0.4591    3.9625   12.7865 C.2     1  LIG1        0.2464
      7 C          -0.5846    4.0501   14.3011 C.3     1  LIG1        0.1402
      8 H           0.1617    3.5484   14.6906 H       1  LIG1        0.0586
      9 C          -1.8697    3.4091   14.7833 C.2     1  LIG1        0.1581
     10 C          -1.9106    2.9873   16.1941 C.3     1  LIG1        0.0192
     11 H          -1.0502    2.9129   16.6569 H       1  LIG1        0.0378
     12 C          -3.0758    3.4177   17.0117 C.3     1  LIG1       -0.0428
     13 H          -2.9194    3.6220   17.9472 H       1  LIG1        0.0272
     14 H          -3.7478    3.9695   16.5810 H       1  LIG1        0.0272
     15 C          -2.9766    2.0176   16.5951 C.3     1  LIG1       -0.0428
     16 H          -3.5860    1.7069   15.9067 H       1  LIG1        0.0272
     17 H          -2.7570    1.3594   17.2729 H       1  LIG1        0.0272
     18 C           0.1912    1.5739   12.9563 C.2     1  LIG1        0.2231
     19 C           0.9715    0.4884   12.2760 C.3     1  LIG1        0.0131
     20 H           1.0564   -0.2630   12.8655 H       1  LIG1        0.0323
     21 H           1.8441    0.8171   12.0483 H       1  LIG1        0.0323
     22 H           0.5125    0.2184   11.4764 H       1  LIG1        0.0323
     23 C           0.2838    2.7932   10.8098 C.ar    1  LIG1        0.0439
     24 C          -0.5847    2.2031    9.9378 C.ar    1  LIG1       -0.0398
     25 H          -1.3601    1.8016   10.2585 H       1  LIG1        0.0636
     26 C          -0.3193    2.2008    8.5874 C.ar    1  LIG1       -0.0600
     27 H          -0.9105    1.7938    7.9957 H       1  LIG1        0.0618
     28 C           0.8163    2.7987    8.1207 C.ar    1  LIG1       -0.0616
     29 H           1.0059    2.7893    7.2103 H       1  LIG1        0.0618
     30 C           1.6767    3.4130    8.9918 C.ar    1  LIG1       -0.0600
     31 H           2.4381    3.8380    8.6682 H       1  LIG1        0.0618
     32 C           1.4194    3.4052   10.3517 C.ar    1  LIG1       -0.0398
     33 H           2.0099    3.8098   10.9452 H       1  LIG1        0.0636
     34 C          -2.0411    6.4802   14.4206 C.3     1  LIG1       -0.0170
     35 H          -2.1652    6.3557   13.4780 H       1  LIG1        0.0341
     36 H          -2.0294    7.4193   14.6218 H       1  LIG1        0.0341
     37 H          -2.7614    6.0607   14.8971 H       1  LIG1        0.0341
@<TRIPOS>BOND
     1    29    28    1
     2    27    26    1
     3    28    26   ar
     4    28    30   ar
     5    26    24   ar
     6    31    30    1
     7    30    32   ar
     8    24    25    1
     9    24    23   ar
    10    32    23   ar
    11    32    33    1
    12    23     2    1
    13    22    19    1
    14    21    19    1
    15     3     6    2
    16     2     6   am
    17     2    18   am
    18    19    20    1
    19    19    18    1
    20     6     7    1
    21    18     5    2
    22    35    34    1
    23     4     9    2
    24     7     8    1
    25     7     9    1
    26     7     1    1
    27    34    36    1
    28    34    37    1
    29    34     1    1
    30     9    10    1
    31    16    15    1
    32    10    15    1
    33    10    11    1
    34    10    12    1
    35    14    12    1
    36    15    12    1
    37    15    17    1
    38    12    13    1
