@<TRIPOS>MOLECULE
4034791.cif
 37 37 0 0 0
SMALL
GASTEIGER

@<TRIPOS>ATOM
      1 S           3.4748    2.8845    7.5467 S.3     1  LIG1       -0.1200
      2 N           3.5183    3.9333   10.8515 N.am    1  LIG1       -0.3073
      3 O           3.4233    6.6112    9.0051 O.3     1  LIG1       -0.4241
      4 O           1.2376    6.6443    9.4490 O.2     1  LIG1       -0.2507
      5 O           5.5216    4.3692    9.9291 O.2     1  LIG1       -0.2695
      6 C           3.0071    7.1906    6.2719 C.ar    1  LIG1       -0.0510
      7 H           3.5256    7.7794    6.7714 H       1  LIG1        0.0625
      8 C           2.5779    7.5302    4.9988 C.ar    1  LIG1       -0.0611
      9 H           2.8305    8.3480    4.6359 H       1  LIG1        0.0618
     10 C           1.7868    6.6827    4.2634 C.ar    1  LIG1       -0.0617
     11 H           1.5189    6.9226    3.4055 H       1  LIG1        0.0618
     12 C           1.3922    5.4848    4.7935 C.ar    1  LIG1       -0.0611
     13 H           0.8392    4.9163    4.3085 H       1  LIG1        0.0618
     14 C           1.8252    5.1225    6.0611 C.ar    1  LIG1       -0.0510
     15 H           1.5545    4.3103    6.4231 H       1  LIG1        0.0625
     16 C           2.6500    5.9514    6.7887 C.ar    1  LIG1        0.0187
     17 C           3.2059    5.5531    8.0933 C.2     1  LIG1        0.1571
     18 C           3.6360    4.3564    8.4927 C.2     1  LIG1        0.1123
     19 C           4.3091    4.2243    9.8334 C.2     1  LIG1        0.2542
     20 C           4.0325    3.7185   12.1909 C.3     1  LIG1        0.0300
     21 H           4.8717    3.2354   12.1330 H       1  LIG1        0.0506
     22 H           3.4065    3.1638   12.6835 H       1  LIG1        0.0506
     23 C           4.2563    4.9879   12.9490 C.2     1  LIG1       -0.0742
     24 H           4.6489    5.6920   12.4854 H       1  LIG1        0.0582
     25 C           3.9634    5.1967   14.1579 C.2     1  LIG1       -0.1012
     26 H           3.5688    4.5237   14.6647 H       1  LIG1        0.0532
     27 H           4.1420    6.0238   14.5437 H       1  LIG1        0.0532
     28 C           2.3178    7.0831    9.6476 C.2     1  LIG1        0.3092
     29 C           2.6567    8.1938   10.5762 C.3     1  LIG1        0.0336
     30 H           1.8857    8.4165   11.1049 H       1  LIG1        0.0342
     31 H           2.9294    8.9617   10.0705 H       1  LIG1        0.0342
     32 H           3.3720    7.9196   11.1549 H       1  LIG1        0.0342
     33 C           4.8803    1.8950    8.0733 C.3     1  LIG1       -0.0132
     34 H           5.6945    2.3320    7.8141 H       1  LIG1        0.0344
     35 H           4.8352    1.0297    7.6597 H       1  LIG1        0.0344
     36 H           4.8611    1.7945    9.0278 H       1  LIG1        0.0344
     37 H           2.7258    3.8523   10.7232 H       1  LIG1        0.1493
@<TRIPOS>BOND
     1    11    10    1
     2    10    12   ar
     3    10     8   ar
     4    13    12    1
     5     9     8    1
     6    12    14   ar
     7     8     6   ar
     8    14    15    1
     9    14    16   ar
    10     6     7    1
    11     6    16   ar
    12    16    17    1
    13     1    33    1
    14     1    18    1
    15    35    33    1
    16    34    33    1
    17    33    36    1
    18    17    18    2
    19    17     3    1
    20    18    19    1
    21     3    28    1
    22     4    28    2
    23    28    29    1
    24    19     5    2
    25    19     2   am
    26    31    29    1
    27    29    30    1
    28    29    32    1
    29    37     2    1
    30     2    20    1
    31    21    20    1
    32    20    22    1
    33    20    23    1
    34    24    23    1
    35    23    25    2
    36    25    27    1
    37    25    26    1
