@<TRIPOS>MOLECULE
4034512.cif
 44 47 0 0 0
SMALL
GASTEIGER

@<TRIPOS>ATOM
      1 C           9.2730    2.9559    3.7756 C.3     1  LIG1       -0.0397
      2 H           8.3844    3.3090    3.8585 H       1  LIG1        0.0278
      3 H           9.2715    2.2282    3.1496 H       1  LIG1        0.0278
      4 H           9.8634    3.6456    3.4629 H       1  LIG1        0.0278
      5 C           9.7479    2.4596    5.1259 C.ar    1  LIG1       -0.0499
      6 C           9.0190    2.7404    6.2759 C.ar    1  LIG1       -0.0509
      7 H           8.2491    3.2600    6.2274 H       1  LIG1        0.0624
      8 C           9.4450    2.2449    7.4861 C.ar    1  LIG1        0.0134
      9 C           8.8830    2.3981    8.8839 C.3     1  LIG1        0.0934
     10 H           9.1195    3.2859    9.2250 H       1  LIG1        0.0525
     11 C           9.7108    1.3229    9.6569 C.3     1  LIG1        0.1797
     12 H           9.1713    0.5150    9.7859 H       1  LIG1        0.0833
     13 C          10.5810    1.4656    7.5610 C.ar    1  LIG1        0.1261
     14 C          11.3391    1.1780    6.4510 C.ar    1  LIG1       -0.0193
     15 H          12.1116    0.6636    6.5096 H       1  LIG1        0.0654
     16 C          10.8997    1.6908    5.2380 C.ar    1  LIG1       -0.0554
     17 H          11.3945    1.5134    4.4712 H       1  LIG1        0.0621
     18 C           7.4286    2.2329    8.9596 C.1     1  LIG1       -0.0846
     19 C           6.2487    2.1796    8.9961 C.1     1  LIG1       -0.0656
     20 C           4.8094    2.1661    9.0472 C.ar    1  LIG1        0.0249
     21 C           4.0692    2.6443    7.9764 C.ar    1  LIG1       -0.0463
     22 H           4.5028    2.9497    7.2125 H       1  LIG1        0.0630
     23 C           2.6848    2.6683    8.0419 C.ar    1  LIG1       -0.0606
     24 H           2.1958    2.9935    7.3207 H       1  LIG1        0.0618
     25 C           2.0364    2.2239    9.1453 C.ar    1  LIG1       -0.0617
     26 H           1.1071    2.2368    9.1774 H       1  LIG1        0.0618
     27 C           2.7469    1.7599   10.2024 C.ar    1  LIG1       -0.0606
     28 H           2.2994    1.4633   10.9618 H       1  LIG1        0.0618
     29 C           4.1311    1.7223   10.1655 C.ar    1  LIG1       -0.0463
     30 H           4.6054    1.3977   10.8966 H       1  LIG1        0.0630
     31 C          10.2222    1.8259   11.0010 C.2     1  LIG1        0.2049
     32 C           9.2874    1.8357   12.1627 C.ar    1  LIG1        0.0212
     33 C           8.0322    1.2463   12.1214 C.ar    1  LIG1       -0.0511
     34 H           7.7291    0.8493   11.3372 H       1  LIG1        0.0625
     35 C           7.2282    1.2523   13.2562 C.ar    1  LIG1       -0.0611
     36 H           6.3845    0.8620   13.2295 H       1  LIG1        0.0618
     37 C           7.6773    1.8312   14.4137 C.ar    1  LIG1       -0.0617
     38 H           7.1382    1.8275   15.1714 H       1  LIG1        0.0618
     39 C           8.9219    2.4198   14.4637 C.ar    1  LIG1       -0.0611
     40 H           9.2182    2.8143   15.2521 H       1  LIG1        0.0618
     41 C           9.7299    2.4243   13.3435 C.ar    1  LIG1       -0.0511
     42 H          10.5703    2.8209   13.3784 H       1  LIG1        0.0625
     43 O          10.8577    1.0230    8.8298 O.3     1  LIG1       -0.4791
     44 O          11.3547    2.2269   11.1070 O.2     1  LIG1       -0.2880
@<TRIPOS>BOND
     1     3     1    1
     2     4     1    1
     3     1     2    1
     4     1     5    1
     5    17    16    1
     6     5    16   ar
     7     5     6   ar
     8    16    14   ar
     9     7     6    1
    10     6     8   ar
    11    14    15    1
    12    14    13   ar
    13    22    21    1
    14    24    23    1
    15     8    13   ar
    16     8     9    1
    17    13    43    1
    18    21    23   ar
    19    21    20   ar
    20    23    25   ar
    21    43    11    1
    22     9    18    1
    23     9    10    1
    24     9    11    1
    25    18    19    3
    26    19    20    1
    27    20    29   ar
    28    25    26    1
    29    25    27   ar
    30    11    12    1
    31    11    31    1
    32    29    27   ar
    33    29    30    1
    34    27    28    1
    35    31    44    2
    36    31    32    1
    37    34    33    1
    38    33    32   ar
    39    33    35   ar
    40    32    41   ar
    41    36    35    1
    42    35    37   ar
    43    41    42    1
    44    41    39   ar
    45    37    39   ar
    46    37    38    1
    47    39    40    1
