@<TRIPOS>MOLECULE
C11 H14 N2 O2
 29 29 0 0 0
SMALL
GASTEIGER

@<TRIPOS>ATOM
      1 O           3.8342    2.5047    2.4452 O.3     1  LIG1       -0.4646
      2 O           4.0970    2.1662    4.6558 O.2     1  LIG1       -0.2453
      3 N           5.8267    0.0595    5.3635 N.pl3   1  LIG1       -0.3596
      4 C           5.3173    0.8555    3.1179 C.2     1  LIG1        0.0551
      5 C           4.3828    1.8741    3.4972 C.2     1  LIG1        0.3364
      6 C           5.9382    0.0627    4.0341 C.2     1  LIG1        0.0319
      7 C           7.0792   -0.2284    1.9559 C.3     1  LIG1        0.0045
      8 N           5.5409   -3.1692    3.0207 N.1     1  LIG1       -0.1956
      9 C           6.8713   -0.9291    3.3398 C.3     1  LIG1        0.0986
     10 C           8.1880   -1.1988    4.0737 C.3     1  LIG1       -0.0408
     11 H           8.0102   -1.6914    4.8790 H       1  LIG1        0.0249
     12 H           8.6082   -0.3646    4.2942 H       1  LIG1        0.0249
     13 H           8.7711   -1.7098    3.5068 H       1  LIG1        0.0249
     14 C           6.1251   -2.1946    3.1607 C.1     1  LIG1        0.0755
     15 C           5.7556    0.5153    1.7174 C.3     1  LIG1       -0.0114
     16 C           2.8908    3.5484    2.7618 C.3     1  LIG1        0.0820
     17 H           2.2146    3.2014    3.3475 H       1  LIG1        0.0661
     18 H           2.4817    3.8661    1.9525 H       1  LIG1        0.0661
     19 H           3.3479    4.2731    3.1950 H       1  LIG1        0.0661
     20 C           7.5373   -1.1085    0.8388 C.2     1  LIG1       -0.0859
     21 C           8.7131   -0.9990    0.2608 C.2     1  LIG1       -0.1023
     22 H           7.7558    0.4677    2.1346 H       1  LIG1        0.0365
     23 H           5.8956    1.3047    1.1742 H       1  LIG1        0.0322
     24 H           5.0943   -0.0737    1.2493 H       1  LIG1        0.0322
     25 H           6.9066   -1.7862    0.5462 H       1  LIG1        0.0570
     26 H           9.3649   -0.3407    0.6008 H       1  LIG1        0.0532
     27 H           8.9679   -1.5652   -0.4733 H       1  LIG1        0.0532
     28 H           6.1595   -0.5709    5.8462 H       1  LIG1        0.1421
     29 H           5.3103    0.6537    5.7188 H       1  LIG1        0.1421
@<TRIPOS>BOND
     1    27    21    1
     2    21    26    1
     3    21    20    2
     4    25    20    1
     5    20     7    1
     6    23    15    1
     7    24    15    1
     8    15     7    1
     9    15     4    1
    10    18    16    1
    11     7    22    1
    12     7     9    1
    13     1    16    1
    14     1     5    1
    15    16    19    1
    16    16    17    1
    17     8    14    3
    18     4     5    1
    19     4     6    2
    20    14     9    1
    21     9     6    1
    22     9    10    1
    23     5     2    2
    24    13    10    1
    25     6     3    1
    26    10    12    1
    27    10    11    1
    28     3    29    1
    29     3    28    1
