@<TRIPOS>MOLECULE
C35 H24 N4 O6 S
 70 78 0 0 0
SMALL
GASTEIGER

@<TRIPOS>ATOM
      1 C           6.8666    8.8240    1.8357 C.2     1  LIG1        0.2545
      2 C           6.9326    7.6406   -0.1585 C.2     1  LIG1        0.2545
      3 C           7.6650    8.9203   -0.3456 C.ar    1  LIG1        0.0494
      4 C           7.6498    9.6062    0.8395 C.ar    1  LIG1        0.0494
      5 C           8.2868   10.8190    0.9760 C.ar    1  LIG1       -0.0489
      6 H           8.2875   11.2818    1.7834 H       1  LIG1        0.0625
      7 C           8.9341   11.3218   -0.1601 C.ar    1  LIG1       -0.0610
      8 H           9.3929   12.1286   -0.1028 H       1  LIG1        0.0618
      9 C           8.9060   10.6504   -1.3586 C.ar    1  LIG1       -0.0610
     10 H           9.3203   11.0288   -2.1003 H       1  LIG1        0.0618
     11 C           8.2775    9.4238   -1.4867 C.ar    1  LIG1       -0.0489
     12 H           8.2650    8.9621   -2.2942 H       1  LIG1        0.0625
     13 C           4.4284    6.7560    2.1796 C.2     1  LIG1        0.2419
     14 C           5.8813    6.4965    1.8138 C.3     1  LIG1        0.1131
     15 H           5.8989    5.7489    1.1800 H       1  LIG1        0.0602
     16 C           6.5647    6.0259    3.1050 C.3     1  LIG1        0.0061
     17 H           7.0792    6.7446    3.5062 H       1  LIG1        0.0314
     18 H           7.1545    5.2759    2.9314 H       1  LIG1        0.0314
     19 C           5.3960    5.6076    4.0237 C.3     1  LIG1        0.1265
     20 C           5.1621    4.0700    4.0523 C.3     1  LIG1        0.2123
     21 H           5.5230    3.6556    3.2415 H       1  LIG1        0.0994
     22 C           5.6227    5.9135    5.4683 C.ar    1  LIG1        0.0044
     23 C           5.9846    4.7594    6.1526 C.ar    1  LIG1        0.0606
     24 C           6.3201    4.7916    7.4860 C.ar    1  LIG1       -0.0386
     25 H           6.5813    4.0217    7.9378 H       1  LIG1        0.0637
     26 C           6.2556    6.0213    8.1367 C.ar    1  LIG1       -0.0599
     27 H           6.4692    6.0686    9.0402 H       1  LIG1        0.0618
     28 C           5.8780    7.1829    7.4641 C.ar    1  LIG1       -0.0613
     29 H           5.8390    7.9909    7.9209 H       1  LIG1        0.0618
     30 C           5.5633    7.1349    6.1240 C.ar    1  LIG1       -0.0545
     31 H           5.3151    7.9056    5.6672 H       1  LIG1        0.0622
     32 C           0.6995    5.1872    5.4194 C.ar    1  LIG1       -0.0490
     33 H          -0.0786    4.9158    5.8509 H       1  LIG1        0.0625
     34 C           1.6870    4.2780    5.1615 C.ar    1  LIG1       -0.0173
     35 H           1.5866    3.3926    5.4278 H       1  LIG1        0.0655
     36 C           2.8589    4.6878    4.4872 C.ar    1  LIG1        0.1468
     37 C           3.0049    5.9824    4.0709 C.ar    1  LIG1        0.1055
     38 C           2.0323    6.9630    4.3743 C.ar    1  LIG1        0.0959
     39 C           0.8551    6.5500    5.0334 C.ar    1  LIG1        0.0024
     40 C          -0.1221    7.5284    5.3014 C.ar    1  LIG1       -0.0511
     41 H          -0.9022    7.2985    5.7515 H       1  LIG1        0.0625
     42 C           0.0805    8.8036    4.9002 C.ar    1  LIG1       -0.0430
     43 H          -0.5701    9.4541    5.0351 H       1  LIG1        0.0633
     44 C           1.2867    9.1198    4.2782 C.ar    1  LIG1        0.0283
     45 H           1.4168   10.0042    4.0237 H       1  LIG1        0.0830
     46 C           4.7591    1.3627    6.1189 C.ar    1  LIG1        0.1089
     47 C           4.3414    1.5972    7.4287 C.ar    1  LIG1       -0.0348
     48 H           4.8503    2.1303    7.9951 H       1  LIG1        0.0637
     49 C           3.1675    1.0322    7.8788 C.ar    1  LIG1       -0.0570
     50 H           2.8850    1.1906    8.7502 H       1  LIG1        0.0621
     51 C           2.4019    0.2309    7.0427 C.ar    1  LIG1       -0.0503
     52 C           2.8294    0.0125    5.7447 C.ar    1  LIG1       -0.0570
     53 H           2.3241   -0.5243    5.1767 H       1  LIG1        0.0621
     54 C           3.9971    0.5817    5.2828 C.ar    1  LIG1       -0.0348
     55 H           4.2692    0.4380    4.4063 H       1  LIG1        0.0637
     56 C           1.1079   -0.3818    7.5602 C.3     1  LIG1       -0.0397
     57 H           0.3703    0.1885    7.3309 H       1  LIG1        0.0278
     58 H           1.1564   -0.4736    8.5143 H       1  LIG1        0.0278
     59 H           0.9816   -1.2451    7.1624 H       1  LIG1        0.0278
     60 N           6.5358    7.6346    1.1720 N.am    1  LIG1       -0.2220
     61 N           4.2391    6.2848    3.4494 N.am    1  LIG1       -0.2491
     62 N           5.9413    3.6684    5.2174 N.pl3   1  LIG1       -0.1617
     63 N           2.2604    8.2630    4.0203 N.ar    1  LIG1       -0.2530
     64 O           6.5664    9.0903    2.9664 O.2     1  LIG1       -0.2695
     65 O           6.7208    6.7525   -0.9521 O.2     1  LIG1       -0.2695
     66 O           3.5713    7.2246    1.4584 O.2     1  LIG1       -0.2732
     67 O           3.7904    3.7187    4.2217 O.3     1  LIG1       -0.4648
     68 O           7.2023    2.0687    6.5864 O.2     1  LIG1       -0.1497
     69 O           6.5364    1.4898    4.2774 O.2     1  LIG1       -0.1497
     70 S           6.2427    2.0836    5.5343 S.O2    1  LIG1        0.0777
@<TRIPOS>BOND
     1    12    11    1
     2    10     9    1
     3    11     9   ar
     4    11     3   ar
     5     9     7   ar
     6    65     2    2
     7     3     2    1
     8     3     4   ar
     9     7     8    1
    10     7     5   ar
    11     2    60   am
    12     4     5   ar
    13     4     1    1
    14     5     6    1
    15    60    14    1
    16    60     1   am
    17    15    14    1
    18    66    13    2
    19    14    13    1
    20    14    16    1
    21     1    64    2
    22    13    61   am
    23    18    16    1
    24    16    17    1
    25    16    19    1
    26    21    20    1
    27    61    19    1
    28    61    37    1
    29    63    44   ar
    30    63    38   ar
    31    45    44    1
    32    19    20    1
    33    19    22    1
    34    20    67    1
    35    20    62    1
    36    37    38   ar
    37    37    36   ar
    38    67    36    1
    39    69    70    2
    40    44    42   ar
    41    38    39   ar
    42    55    54    1
    43    36    34   ar
    44    42    43    1
    45    42    40   ar
    46    39    40   ar
    47    39    32   ar
    48    34    32   ar
    49    34    35    1
    50    53    52    1
    51    62    70    1
    52    62    23    1
    53    54    52   ar
    54    54    46   ar
    55    40    41    1
    56    32    33    1
    57    22    30   ar
    58    22    23   ar
    59    70    46    1
    60    70    68    2
    61    31    30    1
    62    52    51   ar
    63    46    47   ar
    64    30    28   ar
    65    23    24   ar
    66    51    56    1
    67    51    49   ar
    68    59    56    1
    69    57    56    1
    70    47    49   ar
    71    47    48    1
    72    28    29    1
    73    28    26   ar
    74    24    25    1
    75    24    26   ar
    76    56    58    1
    77    49    50    1
    78    26    27    1
