@<TRIPOS>MOLECULE
C8 H14 N O, Cl
 25 26 0 0 0
SMALL
GASTEIGER

@<TRIPOS>ATOM
      1 CL         -0.9016    2.6171    4.7132 Cl      1  LIG1        0.0000
      2 N          -2.4005    4.8567    7.8902 N.4     2  LIG2        0.2279
      3 H          -2.7156    5.2229    8.6615 H       2  LIG2        0.2014
      4 H          -3.1024    4.5130    7.4240 H       2  LIG2        0.2014
      5 O           1.8533    5.1086    7.1719 O.3     2  LIG2       -0.3782
      6 C           1.1283    3.9543    7.6149 C.3     2  LIG2        0.0589
      7 H           1.6796    3.4052    8.2269 H       2  LIG2        0.0567
      8 H           0.8503    3.3962    6.8459 H       2  LIG2        0.0567
      9 C          -0.0811    4.5192    8.3377 C.3     2  LIG2        0.0465
     10 C          -0.2927    5.9195    7.6664 C.3     2  LIG2        0.0465
     11 C           0.8662    6.0282    6.6927 C.3     2  LIG2        0.0589
     12 H           0.5776    5.7855    5.7773 H       2  LIG2        0.0567
     13 H           1.2254    6.9509    6.6792 H       2  LIG2        0.0567
     14 C          -1.6866    5.8916    7.0733 C.3     2  LIG2       -0.0250
     15 H          -2.1256    6.7749    7.1571 H       2  LIG2        0.0820
     16 H          -1.6607    5.6338    6.1178 H       2  LIG2        0.0820
     17 C          -1.4002    3.7861    8.1916 C.3     2  LIG2       -0.0250
     18 H          -1.3565    3.1281    7.4533 H       2  LIG2        0.0820
     19 H          -1.6337    3.3127    9.0291 H       2  LIG2        0.0820
     20 C          -0.1058    6.5861    9.0505 C.3     2  LIG2       -0.0388
     21 H           0.6560    7.2173    9.0859 H       2  LIG2        0.0274
     22 H          -0.9297    7.0085    9.4007 H       2  LIG2        0.0274
     23 C           0.2000    5.2179    9.6837 C.3     2  LIG2       -0.0388
     24 H          -0.4325    4.9634   10.4014 H       2  LIG2        0.0274
     25 H           1.1367    5.1239    9.9901 H       2  LIG2        0.0274
@<TRIPOS>BOND
     1    12    11    1
     2    16    14    1
     3    13    11    1
     4    11     5    1
     5    11    10    1
     6     8     6    1
     7    14    15    1
     8    14    10    1
     9    14     2    1
    10     5     6    1
    11     4     2    1
    12    18    17    1
    13     6     7    1
    14     6     9    1
    15    10     9    1
    16    10    20    1
    17     2    17    1
    18     2     3    1
    19    17     9    1
    20    17    19    1
    21     9    23    1
    22    20    21    1
    23    20    22    1
    24    20    23    1
    25    23    25    1
    26    23    24    1
