@<TRIPOS>MOLECULE
C18 H13 F N2 O5
 39 42 0 0 0
SMALL
GASTEIGER

@<TRIPOS>ATOM
      1 O           2.7779    6.2675    3.6554 O.3     1  LIG1       -0.4613
      2 O           1.4361    6.6405    1.9011 O.2     1  LIG1       -0.2449
      3 O           2.1063    8.3676    4.8839 O.3     1  LIG1       -0.3562
      4 O          -1.7433   11.2083    2.1662 O.2     1  LIG1       -0.2652
      5 O           3.2581    9.2791    2.2157 O.2     1  LIG1       -0.2655
      6 F          -2.5997    5.8396    5.8375 F       1  LIG1       -0.2055
      7 N          -0.1937    9.7355    2.8670 N.ar    1  LIG1       -0.2101
      8 N           1.1383    9.2623    2.9077 N.ar    1  LIG1       -0.1951
      9 C           0.4881   11.4688    1.3672 C.ar    1  LIG1        0.0536
     10 C           0.1780   12.5676    0.5594 C.ar    1  LIG1       -0.0486
     11 H          -0.6933   12.8928    0.5347 H       1  LIG1        0.0625
     12 C           1.1575   13.1716   -0.1997 C.ar    1  LIG1       -0.0610
     13 H           0.9409   13.8982   -0.7397 H       1  LIG1        0.0618
     14 C           2.4470   12.7094   -0.1644 C.ar    1  LIG1       -0.0610
     15 H           3.1009   13.1246   -0.6805 H       1  LIG1        0.0618
     16 C           2.7825   11.6278    0.6355 C.ar    1  LIG1       -0.0486
     17 H           3.6625   11.3289    0.6664 H       1  LIG1        0.0625
     18 C           1.8043   10.9898    1.3911 C.ar    1  LIG1        0.0533
     19 C           2.1564    9.7995    2.1794 C.ar    1  LIG1        0.2773
     20 C          -0.5689   10.8245    2.1450 C.ar    1  LIG1        0.2784
     21 C          -0.9776    8.8308    3.6165 C.ar    1  LIG1        0.0761
     22 C          -2.3523    8.8311    3.8154 C.ar    1  LIG1       -0.0331
     23 H          -2.8948    9.4910    3.4486 H       1  LIG1        0.0640
     24 C          -2.8781    7.8120    4.5772 C.ar    1  LIG1       -0.0244
     25 H          -3.7929    7.7795    4.7407 H       1  LIG1        0.0647
     26 C          -2.0469    6.8389    5.0978 C.ar    1  LIG1        0.1240
     27 C          -0.6871    6.8159    4.9033 C.ar    1  LIG1       -0.0161
     28 H          -0.1508    6.1439    5.2577 H       1  LIG1        0.0651
     29 C          -0.1631    7.8487    4.1494 C.ar    1  LIG1        0.0457
     30 C           1.2787    8.0982    3.7986 C.3     1  LIG1        0.2884
     31 C           1.8540    6.9198    2.9899 C.2     1  LIG1        0.3675
     32 C           3.4139    5.0956    2.9625 C.3     1  LIG1        0.0898
     33 H           3.4129    5.2229    2.0009 H       1  LIG1        0.0694
     34 H           4.3288    4.9742    3.2612 H       1  LIG1        0.0694
     35 C           2.6135    3.9751    3.3231 C.3     1  LIG1       -0.0306
     36 H           2.5940    3.8908    4.2794 H       1  LIG1        0.0262
     37 H           2.9855    3.1784    2.9386 H       1  LIG1        0.0262
     38 H           1.7198    4.1016    2.9952 H       1  LIG1        0.0262
     39 H           1.6724    8.9409    5.5061 H       1  LIG1        0.2132
@<TRIPOS>BOND
     1    13    12    1
     2    15    14    1
     3    12    14   ar
     4    12    10   ar
     5    14    16   ar
     6    11    10    1
     7    10     9   ar
     8    16    17    1
     9    16    18   ar
    10     9    18   ar
    11     9    20   ar
    12    18    19   ar
    13     2    31    2
    14    33    32    1
    15    20     4    2
    16    20     7   ar
    17    19     5    2
    18    19     8   ar
    19     7     8   ar
    20     7    21    1
    21     8    30    1
    22    37    35    1
    23    32    34    1
    24    32    35    1
    25    32     1    1
    26    31     1    1
    27    31    30    1
    28    38    35    1
    29    35    36    1
    30    23    22    1
    31    21    22   ar
    32    21    29   ar
    33    30    29    1
    34    30     3    1
    35    22    24   ar
    36    29    27   ar
    37    24    25    1
    38    24    26   ar
    39     3    39    1
    40    27    26   ar
    41    27    28    1
    42    26     6    1
