@<TRIPOS>MOLECULE
4035140.cif
 58 60 0 0 0
SMALL
GASTEIGER

@<TRIPOS>ATOM
      1 O          -1.5119    4.8738   12.1242 O.2     1  LIG1       -0.4917
      2 O           2.1604    8.0959   16.4590 O.3     1  LIG1       -0.4951
      3 O          -1.3987    1.0436   13.4414 O.2     1  LIG1       -0.2499
      4 O           1.9268    6.4835    9.5281 O.2     1  LIG1       -0.2923
      5 O          -0.4661    2.1521   16.2362 O.3     1  LIG1       -0.4643
      6 C          -1.0693    5.8491   11.3027 C.2     1  LIG1        0.1047
      7 O          -2.0372    3.6260   16.7490 O.2     1  LIG1       -0.2499
      8 C           0.4094    4.8580   14.5180 C.ar    1  LIG1       -0.0392
      9 O          -3.3824    1.8884   13.9340 O.3     1  LIG1       -0.4643
     10 C          -0.2249    6.0892   14.6385 C.ar    1  LIG1       -0.0547
     11 H          -1.0743    6.2040   14.2771 H       1  LIG1        0.0622
     12 C          -1.3945    3.0389   15.9423 C.2     1  LIG1        0.3218
     13 C           1.6617    4.7231   15.1021 C.ar    1  LIG1       -0.0547
     14 H           2.0935    3.9012   15.0576 H       1  LIG1        0.0622
     15 C          -0.2144    3.6689   13.7946 C.3     1  LIG1        0.0446
     16 H           0.4109    2.9197   13.8804 H       1  LIG1        0.0398
     17 C           0.7869    6.6115    9.9517 C.2     1  LIG1        0.1625
     18 C          -0.4209    3.9125   12.2994 C.3     1  LIG1        0.1119
     19 H          -0.6828    3.0661   11.8800 H       1  LIG1        0.0742
     20 C           0.1943    5.7054   10.8974 C.2     1  LIG1        0.0359
     21 C           0.3858    7.1451   15.2859 C.ar    1  LIG1       -0.0197
     22 H          -0.0502    7.9644   15.3469 H       1  LIG1        0.0654
     23 C          -2.0649    1.9366   13.8550 C.2     1  LIG1        0.3218
     24 C          -1.5444    3.2282   14.4553 C.3     1  LIG1        0.1630
     25 H          -2.2120    3.9301   14.3012 H       1  LIG1        0.0536
     26 C          -1.9975    6.9462   10.9475 C.3     1  LIG1        0.0057
     27 H          -2.7407    6.5922   10.4339 H       1  LIG1        0.0343
     28 H          -2.3526    7.3475   11.7558 H       1  LIG1        0.0343
     29 C           2.2854    5.7737   15.7492 C.ar    1  LIG1       -0.0197
     30 H           3.1318    5.6598   16.1162 H       1  LIG1        0.0654
     31 C           0.7760    4.4883   11.5229 C.3     1  LIG1        0.0166
     32 H           1.5072    4.7135   12.1192 H       1  LIG1        0.0351
     33 H           1.0930    3.8644   10.8511 H       1  LIG1        0.0351
     34 C           3.5005    8.0371   16.9598 C.3     1  LIG1        0.0788
     35 H           3.7294    8.8792   17.3602 H       1  LIG1        0.0660
     36 H           4.1049    7.8514   16.2386 H       1  LIG1        0.0660
     37 H           3.5654    7.3414   17.6198 H       1  LIG1        0.0660
     38 C          -0.1037    7.7287    9.4551 C.3     1  LIG1        0.0106
     39 H           0.4084    8.5524    9.4680 H       1  LIG1        0.0345
     40 H          -0.3335    7.5456    8.5318 H       1  LIG1        0.0345
     41 C           1.6464    6.9909   15.8448 C.ar    1  LIG1        0.1201
     42 C          -0.1907    1.8551   17.6272 C.3     1  LIG1        0.0897
     43 H          -0.8620    2.2809   18.1834 H       1  LIG1        0.0694
     44 H          -0.2518    0.8973   17.7662 H       1  LIG1        0.0694
     45 C          -1.3049    7.9425   10.1762 C.3     1  LIG1       -0.0392
     46 H          -1.9480    8.2764    9.5311 H       1  LIG1        0.0273
     47 H          -1.1255    8.6759   10.7843 H       1  LIG1        0.0273
     48 C           1.0854    2.2993   18.0184 C.3     1  LIG1       -0.0306
     49 H           1.2282    2.0864   18.9435 H       1  LIG1        0.0262
     50 H           1.1450    3.2501   17.8960 H       1  LIG1        0.0262
     51 H           1.7542    1.8656   17.4844 H       1  LIG1        0.0262
     52 C          -4.3952    0.8447   12.1247 C.3     1  LIG1       -0.0306
     53 H          -4.8604    0.0701   11.8021 H       1  LIG1        0.0262
     54 H          -3.5865    0.9656   11.6223 H       1  LIG1        0.0262
     55 H          -4.9533    1.6193   12.0246 H       1  LIG1        0.0262
     56 C          -4.0825    0.6703   13.4725 C.3     1  LIG1        0.0897
     57 H          -3.5124   -0.1060   13.5856 H       1  LIG1        0.0694
     58 H          -4.8921    0.5345   13.9879 H       1  LIG1        0.0694
@<TRIPOS>BOND
     1    40    38    1
     2    38    39    1
     3    38    17    1
     4    38    45    1
     5     4    17    2
     6    46    45    1
     7    17    20    1
     8    45    47    1
     9    45    26    1
    10    27    26    1
    11    33    31    1
    12    20     6    2
    13    20    31    1
    14    26     6    1
    15    26    28    1
    16     6     1    1
    17    31    32    1
    18    31    18    1
    19    54    52    1
    20    53    52    1
    21    19    18    1
    22    55    52    1
    23     1    18    1
    24    52    56    1
    25    18    15    1
    26     3    23    2
    27    56    57    1
    28    56     9    1
    29    56    58    1
    30    15    16    1
    31    15    24    1
    32    15     8    1
    33    23     9    1
    34    23    24    1
    35    11    10    1
    36    25    24    1
    37    24    12    1
    38     8    10   ar
    39     8    13   ar
    40    10    21   ar
    41    14    13    1
    42    13    29   ar
    43    21    22    1
    44    21    41   ar
    45    29    41   ar
    46    29    30    1
    47    41     2    1
    48    12     5    1
    49    12     7    2
    50     5    42    1
    51    36    34    1
    52     2    34    1
    53    34    35    1
    54    34    37    1
    55    51    48    1
    56    42    44    1
    57    42    48    1
    58    42    43    1
    59    50    48    1
    60    48    49    1
