@<TRIPOS>MOLECULE
C17 H12 Cl N O3 S
 35 37 0 0 0
SMALL
GASTEIGER

@<TRIPOS>ATOM
      1 CL          4.3244    4.1433    2.6291 Cl      1  LIG1       -0.0816
      2 S           8.0079    6.1761    2.0717 S.2     1  LIG1       -0.0822
      3 O           4.5588   11.1993    0.3418 O.3     1  LIG1       -0.4771
      4 H           4.7670   12.0262    0.1753 H       1  LIG1        0.2954
      5 O           6.7642   11.0040   -0.0190 O.2     1  LIG1       -0.2451
      6 O           8.0695    2.8400    2.2934 O.2     1  LIG1       -0.2690
      7 N           7.4297    3.4096    4.3973 N.am    1  LIG1       -0.2701
      8 C           6.9357    4.9003    2.5484 C.ar    1  LIG1        0.0938
      9 C           5.6366    5.2111    2.3152 C.ar    1  LIG1        0.0679
     10 C           5.4374    6.5224    1.7630 C.ar    1  LIG1        0.0083
     11 C           4.2512    7.1870    1.4200 C.ar    1  LIG1       -0.0513
     12 H           3.4109    6.7548    1.5186 H       1  LIG1        0.0624
     13 C           4.3245    8.4805    0.9371 C.ar    1  LIG1       -0.0471
     14 H           3.5267    8.9503    0.7236 H       1  LIG1        0.0626
     15 C           5.5723    9.1065    0.7577 C.ar    1  LIG1        0.0599
     16 C           6.7555    8.4533    1.0614 C.ar    1  LIG1       -0.0334
     17 H           7.5961    8.8723    0.9214 H       1  LIG1        0.0637
     18 C           6.6742    7.1657    1.5779 C.ar    1  LIG1        0.0223
     19 C           5.6787   10.5175    0.3111 C.2     1  LIG1        0.3368
     20 C           7.5194    3.6159    3.0629 C.2     1  LIG1        0.2587
     21 C           8.0111    2.2014    4.9854 C.3     1  LIG1        0.0086
     22 H           8.4935    1.7014    4.2950 H       1  LIG1        0.0433
     23 H           7.2970    1.6420    5.3550 H       1  LIG1        0.0433
     24 H           8.6330    2.4530    5.6995 H       1  LIG1        0.0433
     25 C           6.8143    4.3412    5.3005 C.ar    1  LIG1        0.0363
     26 C           5.6269    3.9824    5.9267 C.ar    1  LIG1       -0.0403
     27 H           5.2209    3.1452    5.7382 H       1  LIG1        0.0636
     28 C           5.0409    4.8572    6.8273 C.ar    1  LIG1       -0.0600
     29 H           4.2349    4.6114    7.2650 H       1  LIG1        0.0618
     30 C           5.6219    6.0880    7.0948 C.ar    1  LIG1       -0.0616
     31 H           5.2020    6.6942    7.6930 H       1  LIG1        0.0618
     32 C           6.8215    6.4304    6.4818 C.ar    1  LIG1       -0.0600
     33 H           7.2285    7.2675    6.6718 H       1  LIG1        0.0618
     34 C           7.4273    5.5512    5.5935 C.ar    1  LIG1       -0.0403
     35 H           8.2570    5.7766    5.1878 H       1  LIG1        0.0636
@<TRIPOS>BOND
     1     5    19    2
     2     4     3    1
     3    19     3    1
     4    19    15    1
     5    14    13    1
     6    15    13   ar
     7    15    16   ar
     8    17    16    1
     9    13    11   ar
    10    16    18   ar
    11    11    12    1
    12    11    10   ar
    13    18    10   ar
    14    18     2   ar
    15    10     9   ar
    16     2     8   ar
    17     6    20    2
    18     9     8   ar
    19     9     1    1
    20     8    20    1
    21    20     7   am
    22    22    21    1
    23     7    21    1
    24     7    25    1
    25    21    23    1
    26    21    24    1
    27    35    34    1
    28    25    34   ar
    29    25    26   ar
    30    34    32   ar
    31    27    26    1
    32    26    28   ar
    33    32    33    1
    34    32    30   ar
    35    28    30   ar
    36    28    29    1
    37    30    31    1
