@<TRIPOS>MOLECULE
4035699.cif
 62 66 0 0 0
SMALL
GASTEIGER

@<TRIPOS>ATOM
      1 O          10.8704    1.0543    3.9639 O.3     1  LIG1       -0.4643
      2 C          10.6656    3.1170    2.0395 C.ar    1  LIG1        0.0357
      3 O          11.7144    1.4367    0.7916 O.3     1  LIG1       -0.4656
      4 C          11.7758    2.7048    1.3194 C.ar    1  LIG1        0.1320
      5 C          12.8919    3.5593    1.1407 C.ar    1  LIG1       -0.0186
      6 H          13.6619    3.2478    0.6797 H       1  LIG1        0.0654
      7 O          10.9514    2.8289    5.4917 O.3     1  LIG1       -0.3472
      8 O          13.9571    0.7588    0.8501 O.3     1  LIG1       -0.3472
      9 C          12.8566    4.8371    1.6357 C.ar    1  LIG1       -0.0505
     10 H          13.6084    5.4047    1.5129 H       1  LIG1        0.0625
     11 C           9.5482    2.1633    2.3038 C.ar    1  LIG1        0.0369
     12 C           9.6833    1.1881    3.2686 C.ar    1  LIG1        0.1473
     13 C           8.6423    0.2408    3.5315 C.ar    1  LIG1        0.0682
     14 C           7.4668    0.3171    2.8186 C.ar    1  LIG1       -0.0350
     15 H           6.7708   -0.3050    2.9947 H       1  LIG1        0.0637
     16 C          11.7249    5.3269    2.3244 C.ar    1  LIG1       -0.0171
     17 C           7.2815    1.3077    1.8291 C.ar    1  LIG1       -0.0159
     18 C          10.6176    4.4534    2.5339 C.ar    1  LIG1       -0.0065
     19 C          11.6834    6.6530    2.8395 C.ar    1  LIG1       -0.0540
     20 H          12.4279    7.2297    2.7137 H       1  LIG1        0.0624
     21 C           8.3280    2.2369    1.5594 C.ar    1  LIG1       -0.0065
     22 C           6.0748    1.3797    1.0868 C.ar    1  LIG1       -0.0540
     23 H           5.3752    0.7628    1.2669 H       1  LIG1        0.0624
     24 C           9.4971    4.9485    3.2546 C.ar    1  LIG1       -0.0533
     25 H           8.7545    4.3796    3.4196 H       1  LIG1        0.0624
     26 C          10.5811    7.1065    3.5147 C.ar    1  LIG1       -0.0612
     27 H          10.5572    7.9963    3.8468 H       1  LIG1        0.0618
     28 C           8.1214    3.2098    0.5486 C.ar    1  LIG1       -0.0533
     29 H           8.8061    3.8402    0.3580 H       1  LIG1        0.0624
     30 C           5.9071    2.3281    0.1140 C.ar    1  LIG1       -0.0612
     31 H           5.0950    2.3652   -0.3775 H       1  LIG1        0.0618
     32 C           9.4789    6.2430    3.7146 C.ar    1  LIG1       -0.0611
     33 H           8.7124    6.5637    4.1751 H       1  LIG1        0.0618
     34 C           6.9423    3.2532   -0.1604 C.ar    1  LIG1       -0.0611
     35 H           6.8227    3.9083   -0.8381 H       1  LIG1        0.0618
     36 C           8.8505   -0.7974    4.5242 C.1     1  LIG1       -0.0573
     37 C           9.0800   -1.6168    5.3304 C.1     1  LIG1       -0.0609
     38 C           9.4042   -2.6072    6.3393 C.ar    1  LIG1        0.0253
     39 C           9.4413   -3.9703    6.0157 C.ar    1  LIG1       -0.0463
     40 H           9.2307   -4.2549    5.1342 H       1  LIG1        0.0630
     41 C           9.7865   -4.9070    6.9850 C.ar    1  LIG1       -0.0606
     42 H           9.8186   -5.8302    6.7629 H       1  LIG1        0.0618
     43 C          10.0845   -4.4924    8.2797 C.ar    1  LIG1       -0.0617
     44 H          10.3154   -5.1341    8.9410 H       1  LIG1        0.0618
     45 C          10.0456   -3.1431    8.6082 C.ar    1  LIG1       -0.0606
     46 H          10.2488   -2.8647    9.4935 H       1  LIG1        0.0618
     47 C           9.7095   -2.1975    7.6425 C.ar    1  LIG1       -0.0463
     48 H           9.6875   -1.2749    7.8681 H       1  LIG1        0.0630
     49 C          10.8062    1.4550    5.3364 C.3     1  LIG1        0.1905
     50 H           9.9355    1.1755    5.7158 H       1  LIG1        0.1017
     51 H          11.5205    0.9935    5.8431 H       1  LIG1        0.1017
     52 C          12.8367    0.9554    0.0519 C.3     1  LIG1        0.1905
     53 H          12.5949    0.0995   -0.3828 H       1  LIG1        0.1017
     54 H          13.0576    1.6058   -0.6610 H       1  LIG1        0.1017
     55 C          12.2596    3.2854    5.1520 C.3     1  LIG1        0.0402
     56 H          12.4533    3.0567    4.2190 H       1  LIG1        0.0525
     57 H          12.9177    2.8556    5.7372 H       1  LIG1        0.0525
     58 H          12.3063    4.2576    5.2666 H       1  LIG1        0.0525
     59 C          13.7508   -0.2749    1.8133 C.3     1  LIG1        0.0402
     60 H          13.5358   -1.1127    1.3526 H       1  LIG1        0.0525
     61 H          13.0091   -0.0275    2.4042 H       1  LIG1        0.0525
     62 H          14.5658   -0.3940    2.3443 H       1  LIG1        0.0525
@<TRIPOS>BOND
     1    35    34    1
     2    54    52    1
     3    53    52    1
     4    31    30    1
     5    34    30   ar
     6    34    28   ar
     7    52     3    1
     8    52     8    1
     9    30    22   ar
    10    29    28    1
    11    28    21   ar
    12     6     5    1
    13     3     4    1
    14     8    59    1
    15    22    23    1
    16    22    17   ar
    17     5     4   ar
    18     5     9   ar
    19     4     2   ar
    20    60    59    1
    21    10     9    1
    22    21    17   ar
    23    21    11   ar
    24     9    16   ar
    25    59    62    1
    26    59    61    1
    27    17    14   ar
    28     2    11    1
    29     2    18   ar
    30    11    12   ar
    31    16    18   ar
    32    16    19   ar
    33    18    24   ar
    34    20    19    1
    35    14    15    1
    36    14    13   ar
    37    19    26   ar
    38    24    25    1
    39    24    32   ar
    40    12    13   ar
    41    12     1    1
    42    26    32   ar
    43    26    27    1
    44    13    36    1
    45    32    33    1
    46     1    49    1
    47    56    55    1
    48    36    37    3
    49    40    39    1
    50    55    58    1
    51    55     7    1
    52    55    57    1
    53    37    38    1
    54    49     7    1
    55    49    50    1
    56    49    51    1
    57    39    38   ar
    58    39    41   ar
    59    38    47   ar
    60    42    41    1
    61    41    43   ar
    62    47    48    1
    63    47    45   ar
    64    43    45   ar
    65    43    44    1
    66    45    46    1
