@<TRIPOS>MOLECULE
4035847.cif
 38 41 0 0 0
SMALL
GASTEIGER

@<TRIPOS>ATOM
      1 S           4.1494    2.3916    6.1757 S.O2    1  LIG1       -0.0304
      2 O           3.1817    1.3279    6.1095 O.2     1  LIG1       -0.1743
      3 O           4.3097    3.0592    7.4405 O.2     1  LIG1       -0.1743
      4 N           5.9032    2.0899    1.0101 N.3     1  LIG1       -0.2976
      5 C           5.6974    1.8168    5.5089 C.3     1  LIG1        0.0692
      6 H           5.8964    0.9776    5.8502 H       1  LIG1        0.0503
      7 H           6.3406    2.4497    5.8424 H       1  LIG1        0.0503
      8 C           5.5004    1.8702    3.9931 C.3     1  LIG1       -0.0128
      9 H           5.4744    0.9371    3.6060 H       1  LIG1        0.0323
     10 C           6.4538    2.7903    3.1883 C.3     1  LIG1       -0.0193
     11 H           7.1093    3.2740    3.7620 H       1  LIG1        0.0320
     12 C           7.0413    2.1828    1.9367 C.3     1  LIG1        0.0027
     13 H           7.4134    1.3105    2.0727 H       1  LIG1        0.0429
     14 H           7.7623    2.8116    1.5568 H       1  LIG1        0.0429
     15 C           5.1694    3.3463    1.2023 C.3     1  LIG1        0.0027
     16 H           4.2688    3.2808    0.8551 H       1  LIG1        0.0429
     17 H           5.5942    4.1300    0.6549 H       1  LIG1        0.0429
     18 C           5.2409    3.6279    2.6898 C.3     1  LIG1       -0.0193
     19 H           5.2269    4.6347    2.8822 H       1  LIG1        0.0320
     20 C           4.2990    2.8048    3.6012 C.3     1  LIG1       -0.0128
     21 H           3.5628    2.3099    3.1421 H       1  LIG1        0.0323
     22 C           3.8326    3.5360    4.8559 C.3     1  LIG1        0.0692
     23 H           4.3498    4.3745    5.0679 H       1  LIG1        0.0503
     24 H           2.8915    3.7766    4.8925 H       1  LIG1        0.0503
     25 C           6.3834    1.8845   -0.3505 C.3     1  LIG1        0.0241
     26 H           6.8755    2.6809   -0.6159 H       1  LIG1        0.0476
     27 H           6.9708    1.0413   -0.3600 H       1  LIG1        0.0476
     28 C           5.3365    1.6117   -1.4007 C.ar    1  LIG1       -0.0334
     29 C           4.0574    1.1548   -1.0994 C.ar    1  LIG1       -0.0573
     30 H           3.7898    1.0654   -0.1923 H       1  LIG1        0.0621
     31 C           3.1832    0.7873   -2.1119 C.ar    1  LIG1       -0.0615
     32 H           2.3200    0.4647   -1.8375 H       1  LIG1        0.0618
     33 C           3.5637    0.8661   -3.4366 C.ar    1  LIG1       -0.0617
     34 H           2.9768    0.6024   -4.1466 H       1  LIG1        0.0618
     35 C           4.8274    1.3463   -3.7525 C.ar    1  LIG1       -0.0615
     36 H           5.1431    1.4448   -4.6313 H       1  LIG1        0.0618
     37 C           5.7019    1.7256   -2.7476 C.ar    1  LIG1       -0.0573
     38 H           6.5454    2.0602   -2.9381 H       1  LIG1        0.0621
@<TRIPOS>BOND
     1    36    35    1
     2    34    33    1
     3    35    33   ar
     4    35    37   ar
     5    33    31   ar
     6    38    37    1
     7    37    28   ar
     8    31    32    1
     9    31    29   ar
    10    28    29   ar
    11    28    25    1
    12    29    30    1
    13    26    25    1
    14    27    25    1
    15    25     4    1
    16    17    15    1
    17    16    15    1
    18     4    15    1
    19     4    12    1
    20    15    18    1
    21    14    12    1
    22    12    13    1
    23    12    10    1
    24    18    19    1
    25    18    10    1
    26    18    20    1
    27    21    20    1
    28    10    11    1
    29    10     8    1
    30    20     8    1
    31    20    22    1
    32     9     8    1
    33     8     5    1
    34    22    24    1
    35    22    23    1
    36    22     1    1
    37     5     7    1
    38     5     6    1
    39     5     1    1
    40     2     1    2
    41     1     3    2
