@<TRIPOS>MOLECULE
C30 H19 N9 O7 S, 2(C2 H3 N)
 78 82 0 0 0
SMALL
GASTEIGER

@<TRIPOS>ATOM
      1 S          12.9559    6.5814   15.0098 S.O2    1  LIG1        0.0251
      2 O           8.5436    4.2596   23.6649 O.3     1  LIG1       -0.4216
      3 O           1.4927    2.1629   21.4442 O.2     1  LIG1       -0.2752
      4 O           7.8382    4.6992   12.7889 O.3     1  LIG1       -0.4216
      5 O           3.8942    3.1372   15.7817 O.3     1  LIG1       -0.4216
      6 O          13.0394    8.0106   14.8776 O.2     1  LIG1       -0.1643
      7 O          14.0102    5.7590   14.4835 O.2     1  LIG1       -0.1643
      8 N           3.6793    2.7509   21.3577 N.am    1  LIG1       -0.2405
      9 N           9.3431    4.7590   21.5611 N.ar    1  LIG1       -0.0857
     10 N           5.7072    4.0637   13.0243 N.ar    1  LIG1       -0.0857
     11 N           4.7151    3.6714   13.7880 N.ar    1  LIG1       -0.0857
     12 O          12.6934    5.3306   20.7519 O.3     1  LIG1       -0.4216
     13 N          10.4146    5.0231   20.8075 N.ar    1  LIG1       -0.0857
     14 N           6.1118    3.8334   15.7162 N.ar    1  LIG1       -0.0857
     15 N          10.7232    4.7366   23.5041 N.ar    1  LIG1       -0.0857
     16 N           7.1279    4.2146   14.9387 N.ar    1  LIG1       -0.0857
     17 N          11.7749    5.0195   22.7707 N.ar    1  LIG1       -0.0857
     18 C           9.5592    4.5850   22.8502 C.ar    1  LIG1        0.3613
     19 C           3.7054    2.8512   19.9192 C.ar    1  LIG1        0.0415
     20 C           2.5496    2.3797   22.0299 C.2     1  LIG1        0.2210
     21 C           9.0532    5.1520   13.3359 C.ar    1  LIG1        0.1321
     22 C           5.0078    4.3121   22.7121 C.ar    1  LIG1       -0.0365
     23 H           4.2566    4.8473   22.8273 H       1  LIG1        0.0637
     24 C           4.9716    3.5699   15.1039 C.ar    1  LIG1        0.3613
     25 C           6.8729    4.3164   13.6437 C.ar    1  LIG1        0.3613
     26 C          12.7814    6.2084   16.7295 C.ar    1  LIG1        0.0938
     27 C           6.2358    4.6997   23.2527 C.ar    1  LIG1       -0.0175
     28 H           6.3176    5.4940   23.7308 H       1  LIG1        0.0655
     29 C           4.9181    3.1265   22.0033 C.ar    1  LIG1        0.0415
     30 C           7.2503    2.6839   22.3676 C.ar    1  LIG1       -0.0175
     31 H           8.0020    2.1449   22.2660 H       1  LIG1        0.0655
     32 C           6.0271    2.3152   21.8302 C.ar    1  LIG1       -0.0365
     33 H           5.9505    1.5217   21.3526 H       1  LIG1        0.0637
     34 C          11.4339    6.0411   14.2939 C.ar    1  LIG1        0.0938
     35 C           7.3192    3.8760   23.0607 C.ar    1  LIG1        0.1321
     36 C           3.9098    3.0628   17.1865 C.ar    1  LIG1        0.1321
     37 N           5.5282    6.9322   14.3321 N.1     1  LIG1       -0.1969
     38 C          11.5623    5.1168   21.4427 C.ar    1  LIG1        0.3613
     39 C           9.1240    6.4290   13.8318 C.ar    1  LIG1       -0.0174
     40 H           8.3715    6.9757   13.8411 H       1  LIG1        0.0655
     41 C           4.1320    4.0368   19.3434 C.ar    1  LIG1       -0.0365
     42 H           4.3525    4.7602   19.8853 H       1  LIG1        0.0637
     43 C          10.3386    6.8918   14.3207 C.ar    1  LIG1       -0.0330
     44 H          10.4158    7.7542   14.6585 H       1  LIG1        0.0638
     45 C           2.6566    2.2437   23.5253 C.3     1  LIG1        0.0130
     46 H           2.6777    3.1163   23.9253 H       1  LIG1        0.0323
     47 H           3.4623    1.7710   23.7481 H       1  LIG1        0.0323
     48 H           1.8979    1.7569   23.8564 H       1  LIG1        0.0323
     49 C           3.4695    1.8799   17.7340 C.ar    1  LIG1       -0.0175
     50 H           3.2464    1.1607   17.1869 H       1  LIG1        0.0655
     51 C           3.3623    1.7749   19.1198 C.ar    1  LIG1       -0.0365
     52 H           3.0616    0.9843   19.5061 H       1  LIG1        0.0637
     53 C          10.1440    4.3074   13.2712 C.ar    1  LIG1       -0.0174
     54 H          10.0679    3.4561   12.9056 H       1  LIG1        0.0655
     55 C           4.2326    4.1535   17.9620 C.ar    1  LIG1       -0.0175
     56 H           4.5109    4.9496   17.5710 H       1  LIG1        0.0655
     57 C          11.3562    4.7655   13.7685 C.ar    1  LIG1       -0.0330
     58 H          12.1098    4.2193   13.7476 H       1  LIG1        0.0638
     59 C          12.6139    5.6210   19.3828 C.ar    1  LIG1        0.1321
     60 C           4.4212    6.8699   14.5246 C.1     1  LIG1        0.0591
     61 C          12.9251    4.9014   17.1412 C.ar    1  LIG1       -0.0330
     62 H          13.0624    4.2240   16.5198 H       1  LIG1        0.0638
     63 C          12.8618    4.6074   18.4928 C.ar    1  LIG1       -0.0174
     64 H          12.9856    3.7360   18.7921 H       1  LIG1        0.0655
     65 C          12.5683    7.2168   17.6377 C.ar    1  LIG1       -0.0330
     66 H          12.4889    8.0964   17.3470 H       1  LIG1        0.0638
     67 C          12.4724    6.9193   18.9930 C.ar    1  LIG1       -0.0174
     68 H          12.3162    7.5908   19.6169 H       1  LIG1        0.0655
     69 C           4.1126    9.8886   18.5602 C.3     2  LIG2        0.0232
     70 H           4.7580   10.3272   18.0019 H       2  LIG2        0.0382
     71 H           4.2086   10.1967   19.4643 H       2  LIG2        0.0382
     72 H           3.2272   10.0908   18.2456 H       2  LIG2        0.0382
     73 C           4.3237    8.4563   18.5125 C.1     2  LIG2        0.0591
     74 C           2.9990    6.7782   14.7474 C.3     1  LIG1        0.0232
     75 H           2.5554    6.6041   13.9150 H       1  LIG1        0.0382
     76 H           2.6777    7.6060   15.1140 H       1  LIG1        0.0382
     77 H           2.8169    6.0632   15.3626 H       1  LIG1        0.0382
     78 N           4.4941    7.3744   18.5115 N.1     2  LIG2       -0.1969
@<TRIPOS>BOND
     1     4    21    1
     2     4    25    1
     3    54    53    1
     4    10    25   ar
     5    10    11   ar
     6    53    21   ar
     7    53    57   ar
     8    21    39   ar
     9    25    16   ar
    10    58    57    1
    11    57    34   ar
    12    11    24   ar
    13    39    40    1
    14    39    43   ar
    15    75    74    1
    16    34    43   ar
    17    34     1    1
    18    43    44    1
    19    37    60    3
    20     7     1    2
    21    60    74    1
    22    74    76    1
    23    74    77    1
    24     6     1    2
    25    16    14   ar
    26     1    26    1
    27    24    14   ar
    28    24     5    1
    29     5    36    1
    30    62    61    1
    31    26    61   ar
    32    26    65   ar
    33    61    63   ar
    34    36    49   ar
    35    36    55   ar
    36    50    49    1
    37    66    65    1
    38    56    55    1
    39    65    67   ar
    40    49    51   ar
    41    55    41   ar
    42    70    69    1
    43    72    69    1
    44    63    64    1
    45    63    59   ar
    46    78    73    3
    47    73    69    1
    48    69    71    1
    49    67    59   ar
    50    67    68    1
    51    51    52    1
    52    51    19   ar
    53    41    42    1
    54    41    19   ar
    55    59    12    1
    56    19     8    1
    57    12    38    1
    58    13    38   ar
    59    13     9   ar
    60    33    32    1
    61     8    29    1
    62     8    20   am
    63    38    17   ar
    64     3    20    2
    65     9    18   ar
    66    32    29   ar
    67    32    30   ar
    68    29    22   ar
    69    20    45    1
    70    31    30    1
    71    30    35   ar
    72    22    23    1
    73    22    27   ar
    74    17    15   ar
    75    18    15   ar
    76    18     2    1
    77    35    27   ar
    78    35     2    1
    79    27    28    1
    80    45    47    1
    81    45    48    1
    82    45    46    1
