@<TRIPOS>MOLECULE
compound 1
 42 44 0 0 0
SMALL
GASTEIGER

@<TRIPOS>ATOM
      1 O           1.6923    7.0406    4.1932 O.3     1  LIG1       -0.3380
      2 C           2.0163    8.2226    3.4795 C.3     1  LIG1        0.2244
      3 O           3.1749    8.8466    4.0036 O.3     1  LIG1       -0.3380
      4 C           3.0934    9.1608    5.4129 C.3     1  LIG1        0.0621
      5 H           2.3693    9.8341    5.5609 H       1  LIG1        0.0595
      6 C           2.7626    7.8918    6.1722 C.3     1  LIG1       -0.0005
      7 H           2.6269    8.1057    7.1294 H       1  LIG1        0.0315
      8 H           3.5213    7.2584    6.1037 H       1  LIG1        0.0315
      9 C           1.5103    7.2420    5.6167 C.3     1  LIG1        0.0621
     10 H           0.7289    7.8475    5.7668 H       1  LIG1        0.0595
     11 C           1.2070    5.8808    6.1998 C.3     1  LIG1       -0.0385
     12 H           0.4187    5.5042    5.7559 H       1  LIG1        0.0255
     13 H           1.0313    5.9687    7.1594 H       1  LIG1        0.0255
     14 H           1.9745    5.2875    6.0614 H       1  LIG1        0.0255
     15 C           4.4240    9.7640    5.7953 C.3     1  LIG1       -0.0385
     16 H           5.1385    9.1178    5.6182 H       1  LIG1        0.0255
     17 H           4.4181    9.9911    6.7489 H       1  LIG1        0.0255
     18 H           4.5785   10.5750    5.2676 H       1  LIG1        0.0255
     19 C           0.8244    9.1867    3.4233 C.ar    1  LIG1        0.0161
     20 C          -0.4758    8.6794    3.4014 C.ar    1  LIG1       -0.0510
     21 H          -0.6176    7.7463    3.5067 H       1  LIG1        0.0623
     22 C          -1.5596    9.5219    3.2273 C.ar    1  LIG1       -0.0310
     23 H          -2.4455    9.1801    3.2080 H       1  LIG1        0.0640
     24 C          -1.3139   10.8809    3.0812 C.ar    1  LIG1        0.1262
     25 C          -0.0367   11.4160    3.1161 C.ar    1  LIG1       -0.0310
     26 H           0.1003   12.3513    3.0280 H       1  LIG1        0.0640
     27 C           1.0353   10.5564    3.2826 C.ar    1  LIG1       -0.0510
     28 H           1.9199   10.9019    3.3008 H       1  LIG1        0.0623
     29 C           2.3466    7.7928    2.0558 C.ar    1  LIG1        0.0159
     30 C           1.6558    6.7423    1.4674 C.ar    1  LIG1       -0.0531
     31 H           0.9881    6.2801    1.9614 H       1  LIG1        0.0622
     32 C           1.9358    6.3621    0.1603 C.ar    1  LIG1       -0.0613
     33 H           1.4645    5.6378   -0.2346 H       1  LIG1        0.0618
     34 C           2.9013    7.0375   -0.5659 C.ar    1  LIG1       -0.0617
     35 H           3.1017    6.7693   -1.4553 H       1  LIG1        0.0618
     36 C           3.5732    8.1014    0.0027 C.ar    1  LIG1       -0.0613
     37 H           4.2231    8.5741   -0.5033 H       1  LIG1        0.0618
     38 C           3.3031    8.4851    1.3142 C.ar    1  LIG1       -0.0531
     39 H           3.7688    9.2164    1.7022 H       1  LIG1        0.0622
     40 N          -2.4432   11.7880    2.8730 N.pl3   1  LIG1        0.0564
     41 O          -2.2085   12.9917    2.7654 O.2     1  LIG1       -0.1261
     42 O          -3.5749   11.3177    2.8023 O.2     1  LIG1       -0.1261
@<TRIPOS>BOND
     1    35    34    1
     2    34    36   ar
     3    34    32   ar
     4    37    36    1
     5    33    32    1
     6    36    38   ar
     7    32    30   ar
     8    38    39    1
     9    38    29   ar
    10    30    31    1
    11    30    29   ar
    12    29     2    1
    13    41    40    2
    14    42    40    2
    15    40    24    1
    16    26    25    1
    17    24    25   ar
    18    24    22   ar
    19    25    27   ar
    20    23    22    1
    21    22    20   ar
    22    27    28    1
    23    27    19   ar
    24    20    19   ar
    25    20    21    1
    26    19     2    1
    27     2     3    1
    28     2     1    1
    29     3     4    1
    30     1     9    1
    31    18    15    1
    32     4     5    1
    33     4    15    1
    34     4     6    1
    35     9    10    1
    36     9     6    1
    37     9    11    1
    38    16    15    1
    39    12    11    1
    40    15    17    1
    41    14    11    1
    42     8     6    1
    43     6     7    1
    44    11    13    1
