@<TRIPOS>MOLECULE
4036331.cif
 49 49 0 0 0
SMALL
GASTEIGER

@<TRIPOS>ATOM
      1 S           6.3559    5.0190   15.2116 S.3     1  LIG1        0.0320
      2 CL         10.6503    6.9670   19.9253 Cl      1  LIG1       -0.0835
      3 N           7.5222    5.4462   14.1062 N.3     1  LIG1       -0.2372
      4 F          10.1003    5.8298   13.1488 F       1  LIG1       -0.2315
      5 O           7.5443    7.9077   11.9364 O.2     1  LIG1       -0.2475
      6 O           8.8490    6.3381   10.9820 O.3     1  LIG1       -0.4569
      7 O           6.8367    3.8798   16.0084 O.3     1  LIG1       -0.1455
      8 C           8.6979    7.8278   16.5750 C.ar    1  LIG1       -0.0556
      9 H           8.1792    8.5279   16.2496 H       1  LIG1        0.0621
     10 C           9.2259    7.9152   17.8523 C.ar    1  LIG1       -0.0431
     11 H           9.0674    8.6664   18.3771 H       1  LIG1        0.0632
     12 C           9.9796    6.8901   18.3272 C.ar    1  LIG1        0.0410
     13 C          10.2228    5.7734   17.5569 C.ar    1  LIG1       -0.0431
     14 H          10.7406    5.0754   17.8902 H       1  LIG1        0.0632
     15 C           9.6875    5.7041   16.2896 C.ar    1  LIG1       -0.0556
     16 H           9.8451    4.9497   15.7687 H       1  LIG1        0.0621
     17 C           8.9209    6.7324   15.7746 C.ar    1  LIG1       -0.0262
     18 C           8.2750    6.6759   14.4055 C.3     1  LIG1        0.0856
     19 H           7.6236    7.4080   14.3816 H       1  LIG1        0.0553
     20 C           9.2231    6.9157   13.2460 C.3     1  LIG1        0.2168
     21 H           9.7409    7.7287   13.4216 H       1  LIG1        0.0789
     22 C           8.4381    7.1000   11.9667 C.2     1  LIG1        0.3440
     23 C           8.2114    6.3903    9.6177 C.3     1  LIG1        0.1053
     24 C           9.1070    5.4739    8.8393 C.3     1  LIG1       -0.0254
     25 H           9.0333    4.5820    9.1886 H       1  LIG1        0.0268
     26 H          10.0164    5.7723    8.9171 H       1  LIG1        0.0268
     27 H           8.8463    5.4782    7.9153 H       1  LIG1        0.0268
     28 C           8.2575    7.7756    9.0748 C.3     1  LIG1       -0.0254
     29 H           7.8419    7.7959    8.2106 H       1  LIG1        0.0268
     30 H           9.1724    8.0580    8.9970 H       1  LIG1        0.0268
     31 H           7.7904    8.3670    9.6696 H       1  LIG1        0.0268
     32 C           6.8349    5.8597    9.7254 C.3     1  LIG1       -0.0254
     33 H           6.8644    4.9625   10.0667 H       1  LIG1        0.0268
     34 H           6.4221    5.8607    8.8593 H       1  LIG1        0.0268
     35 H           6.3253    6.4127   10.3242 H       1  LIG1        0.0268
     36 C           5.0990    4.3465   14.0683 C.3     1  LIG1        0.0399
     37 C           5.6693    3.2074   13.2600 C.3     1  LIG1       -0.0484
     38 H           4.9626    2.7727   12.7770 H       1  LIG1        0.0244
     39 H           6.0885    2.5755   13.8487 H       1  LIG1        0.0244
     40 H           6.3189    3.5473   12.6413 H       1  LIG1        0.0244
     41 C           4.6143    5.4814   13.2021 C.3     1  LIG1       -0.0484
     42 H           5.3395    5.8053   12.6632 H       1  LIG1        0.0244
     43 H           4.2872    6.1921   13.7589 H       1  LIG1        0.0244
     44 H           3.9067    5.1692   12.6333 H       1  LIG1        0.0244
     45 C           3.9730    3.8830   14.9803 C.3     1  LIG1       -0.0484
     46 H           3.2442    3.5548   14.4475 H       1  LIG1        0.0244
     47 H           3.6708    4.6204   15.5152 H       1  LIG1        0.0244
     48 H           4.2918    3.1819   15.5531 H       1  LIG1        0.0244
     49 H           8.0345    4.8165   13.9206 H       1  LIG1        0.1372
@<TRIPOS>BOND
     1    27    24    1
     2    29    28    1
     3    24    26    1
     4    24    25    1
     5    24    23    1
     6    34    32    1
     7    30    28    1
     8    28    23    1
     9    28    31    1
    10    23    32    1
    11    23     6    1
    12    32    33    1
    13    32    35    1
    14     6    22    1
    15     5    22    2
    16    22    20    1
    17    44    41    1
    18    40    37    1
    19    42    41    1
    20    38    37    1
    21     4    20    1
    22    41    43    1
    23    41    36    1
    24    20    21    1
    25    20    18    1
    26    37    39    1
    27    37    36    1
    28    49     3    1
    29    36    45    1
    30    36     1    1
    31     3    18    1
    32     3     1    1
    33    19    18    1
    34    18    17    1
    35    46    45    1
    36    45    47    1
    37    45    48    1
    38     1     7    1
    39    16    15    1
    40    17    15   ar
    41    17     8   ar
    42     9     8    1
    43    15    13   ar
    44     8    10   ar
    45    13    14    1
    46    13    12   ar
    47    10    12   ar
    48    10    11    1
    49    12     2    1
