@<TRIPOS>MOLECULE
C27 H30 N3 O7
 67 71 0 0 0
SMALL
GASTEIGER

@<TRIPOS>ATOM
      1 O          -6.1871   -3.2442   -9.8773 O.3     1  LIG1       -0.4440
      2 O          -9.1834   -7.5005   -8.5675 O.3     1  LIG1       -0.4665
      3 O          -6.0481   -5.8278  -10.2158 O.2     1  LIG1       -0.2734
      4 N          -6.8468   -4.7118   -8.3340 N.am    1  LIG1       -0.1744
      5 N          -6.0730   -9.3438   -8.5223 N.am    1  LIG1       -0.2530
      6 O          -8.7807   -9.5677   -7.8082 O.2     1  LIG1       -0.2485
      7 O          -8.3147   -7.1918   -3.6220 O.3     1  LIG1       -0.4951
      8 N          -5.1698   -8.8850   -7.4966 N.4     1  LIG1        0.3628
      9 H          -5.5793   -8.9188   -6.6065 H       1  LIG1        0.2265
     10 O          -6.8698   -2.4931   -7.8731 O.2     1  LIG1       -0.2254
     11 O          -5.9177  -10.2269  -10.6215 O.2     1  LIG1       -0.2709
     12 C          -6.3760   -7.0219   -8.1427 C.3     1  LIG1        0.1550
     13 C          -7.2917   -5.1441   -7.0408 C.ar    1  LIG1        0.0518
     14 C          -7.0318   -6.5054   -6.8980 C.ar    1  LIG1        0.0012
     15 C          -7.0098   -8.2718   -8.8116 C.3     1  LIG1        0.1831
     16 H          -7.0338   -8.1294   -9.7811 H       1  LIG1        0.0683
     17 C          -7.9485   -4.4517   -6.0556 C.ar    1  LIG1       -0.0360
     18 H          -8.1479   -3.5499   -6.1651 H       1  LIG1        0.0637
     19 C          -8.3090   -5.1198   -4.8957 C.ar    1  LIG1       -0.0182
     20 H          -8.7529   -4.6587   -4.2219 H       1  LIG1        0.0655
     21 C          -6.3942   -5.8051   -9.0730 C.2     1  LIG1        0.2477
     22 C          -2.9483   -4.5999   -6.5449 C.ar    1  LIG1       -0.0613
     23 H          -2.6520   -3.7709   -6.8424 H       1  LIG1        0.0618
     24 C          -4.1190   -6.6604   -6.9573 C.ar    1  LIG1        0.0022
     25 C          -8.0194   -6.4598   -4.7271 C.ar    1  LIG1        0.1205
     26 C          -8.4183   -8.5560   -8.3297 C.2     1  LIG1        0.3340
     27 C          -6.6454   -3.3570   -8.6465 C.2     1  LIG1        0.4143
     28 C          -4.9081   -7.5011   -7.9274 C.3     1  LIG1        0.0465
     29 H          -4.4450   -7.5149   -8.7900 H       1  LIG1        0.0924
     30 C          -3.6482   -5.4264   -7.3953 C.ar    1  LIG1       -0.0532
     31 H          -3.8084   -5.1581   -8.2706 H       1  LIG1        0.0622
     32 C          -3.8573   -7.0512   -5.6622 C.ar    1  LIG1       -0.0532
     33 H          -4.1650   -7.8726   -5.3514 H       1  LIG1        0.0622
     34 C          -7.3732   -7.1611   -5.7440 C.ar    1  LIG1       -0.0137
     35 H          -7.1766   -8.0642   -5.6414 H       1  LIG1        0.0658
     36 C          -3.1353   -6.2171   -4.8250 C.ar    1  LIG1       -0.0613
     37 H          -2.9512   -6.4892   -3.9557 H       1  LIG1        0.0618
     38 C          -5.4182   -9.9842   -9.5409 C.2     1  LIG1        0.2559
     39 C          -4.0365   -9.8219   -7.6171 C.3     1  LIG1       -0.0020
     40 H          -4.1526  -10.5743   -7.0155 H       1  LIG1        0.0825
     41 H          -3.2024   -9.3761   -7.4007 H       1  LIG1        0.0825
     42 C         -10.5161   -7.5558   -8.0261 C.3     1  LIG1        0.0817
     43 H         -10.9974   -8.2776   -8.4351 H       1  LIG1        0.0661
     44 H         -10.9677   -6.7281   -8.2057 H       1  LIG1        0.0661
     45 H         -10.4711   -7.6976   -7.0783 H       1  LIG1        0.0661
     46 C          -2.6885   -4.9985   -5.2584 C.ar    1  LIG1       -0.0617
     47 H          -2.2120   -4.4441   -4.6828 H       1  LIG1        0.0618
     48 C          -5.7173   -1.9455  -10.4043 C.3     1  LIG1        0.1068
     49 C          -4.0289  -10.2933   -9.0626 C.3     1  LIG1        0.0690
     50 H          -3.3663   -9.8117   -9.5820 H       1  LIG1        0.0413
     51 H          -3.8448  -11.2437   -9.1189 H       1  LIG1        0.0413
     52 C          -9.0482   -6.5607   -2.5900 C.3     1  LIG1        0.0788
     53 H          -9.9159   -6.3155   -2.9192 H       1  LIG1        0.0660
     54 H          -8.5813   -5.7738   -2.3003 H       1  LIG1        0.0660
     55 H          -9.1460   -7.1662   -1.8502 H       1  LIG1        0.0660
     56 C          -6.8382   -0.9427  -10.3891 C.3     1  LIG1       -0.0253
     57 H          -7.5927   -1.2966  -10.8652 H       1  LIG1        0.0268
     58 H          -6.5467   -0.1303  -10.8111 H       1  LIG1        0.0268
     59 H          -7.0913   -0.7588   -9.4824 H       1  LIG1        0.0268
     60 C          -5.3328   -2.3338  -11.8217 C.3     1  LIG1       -0.0253
     61 H          -4.6952   -3.0504  -11.7957 H       1  LIG1        0.0268
     62 H          -4.9445   -1.5763  -12.2674 H       1  LIG1        0.0268
     63 H          -6.1162   -2.6187  -12.2999 H       1  LIG1        0.0268
     64 C          -4.5246   -1.4997   -9.6014 C.3     1  LIG1       -0.0253
     65 H          -4.7988   -1.3081   -8.7012 H       1  LIG1        0.0268
     66 H          -4.1497   -0.7102   -9.9974 H       1  LIG1        0.0268
     67 H          -3.8659   -2.1971   -9.5928 H       1  LIG1        0.0268
@<TRIPOS>BOND
     1    63    60    1
     2    62    60    1
     3    60    61    1
     4    60    48    1
     5    57    56    1
     6    58    56    1
     7    11    38    2
     8    48    56    1
     9    48     1    1
    10    48    64    1
    11    56    59    1
    12     3    21    2
    13    66    64    1
    14     1    27    1
    15    16    15    1
    16    64    67    1
    17    64    65    1
    18    50    49    1
    19    38    49    1
    20    38     5   am
    21    51    49    1
    22    21     4   am
    23    21    12    1
    24    49    39    1
    25    15     5    1
    26    15    26    1
    27    15    12    1
    28    29    28    1
    29    27     4   am
    30    27    10    2
    31     2    26    1
    32     2    42    1
    33     5     8    1
    34    43    42    1
    35     4    13    1
    36    26     6    2
    37    31    30    1
    38    44    42    1
    39    12    28    1
    40    12    14    1
    41    42    45    1
    42    28     8    1
    43    28    24    1
    44    39     8    1
    45    39    41    1
    46    39    40    1
    47     8     9    1
    48    30    24   ar
    49    30    22   ar
    50    13    14   ar
    51    13    17   ar
    52    24    32   ar
    53    14    34   ar
    54    23    22    1
    55    22    46   ar
    56    18    17    1
    57    17    19   ar
    58    34    35    1
    59    34    25   ar
    60    32    33    1
    61    32    36   ar
    62    46    36   ar
    63    46    47    1
    64    19    25   ar
    65    19    20    1
    66    36    37    1
    67    25     7    1
    68     7    52    1
    69    53    52    1
    70    52    54    1
    71    52    55    1
