@<TRIPOS>MOLECULE
ethyl (Z)-3-phenyl-2-(phenylthio)-3-(vinyloxy)acrylate
 82 84 0 0 0
SMALL
GASTEIGER

@<TRIPOS>ATOM
      1 S           1.0943    0.0979    1.3154 S.3     1  LIG1       -0.0788
      2 O           3.8414   -0.5467    3.8937 O.3     1  LIG1       -0.4610
      3 O           1.7542    0.1229    4.3807 O.2     1  LIG1       -0.2442
      4 O           3.5015    1.3110    0.2216 O.2     1  LIG1       -0.4622
      5 C           2.6624    0.0114    3.5950 C.2     1  LIG1        0.3495
      6 C           4.0963   -0.8080    5.2993 C.3     1  LIG1        0.0900
      7 H           3.4151   -1.4272    5.6628 H       1  LIG1        0.0695
      8 H           4.0648    0.0358    5.8162 H       1  LIG1        0.0695
      9 C           5.4525   -1.4199    5.3854 C.3     1  LIG1       -0.0306
     10 H           6.1094   -0.8186    4.9768 H       1  LIG1        0.0262
     11 H           5.4543   -2.2775    4.9129 H       1  LIG1        0.0262
     12 H           5.6860   -1.5663    6.3275 H       1  LIG1        0.0262
     13 C           2.5935    0.4296    2.1710 C.2     1  LIG1        0.1394
     14 C           3.5935    1.1221    1.5795 C.2     1  LIG1        0.1552
     15 C           3.9511    2.4882   -0.3417 C.2     1  LIG1        0.0855
     16 H           4.0961    3.2490    0.2088 H       1  LIG1        0.1023
     17 C           4.1779    2.5631   -1.6230 C.2     1  LIG1       -0.0636
     18 H           4.0345    1.8047   -2.1773 H       1  LIG1        0.0565
     19 H           4.4867    3.3767   -2.0026 H       1  LIG1        0.0565
     20 C           4.8047    1.6192    2.2643 C.ar    1  LIG1        0.0186
     21 C           4.7180    2.2758    3.4884 C.ar    1  LIG1       -0.0510
     22 H           3.8680    2.4662    3.8689 H       1  LIG1        0.0625
     23 C           5.8767    2.6518    4.1540 C.ar    1  LIG1       -0.0611
     24 H           5.8175    3.1009    4.9896 H       1  LIG1        0.0618
     25 C           7.1163    2.3751    3.6052 C.ar    1  LIG1       -0.0617
     26 H           7.9069    2.6233    4.0692 H       1  LIG1        0.0618
     27 C           7.2060    1.7380    2.3780 C.ar    1  LIG1       -0.0611
     28 H           8.0582    1.5500    2.0026 H       1  LIG1        0.0618
     29 C           6.0586    1.3743    1.6971 C.ar    1  LIG1       -0.0510
     30 H           6.1231    0.9585    0.8437 H       1  LIG1        0.0625
     31 C           0.8889   -1.6355    1.6060 C.ar    1  LIG1        0.0131
     32 C          -0.4003   -2.1489    1.5800 C.ar    1  LIG1       -0.0480
     33 H          -1.1406   -1.5663    1.4572 H       1  LIG1        0.0629
     34 C          -0.6101   -3.5077    1.7312 C.ar    1  LIG1       -0.0607
     35 H          -1.4920   -3.8584    1.6873 H       1  LIG1        0.0618
     36 C           0.4583   -4.3564    1.9447 C.ar    1  LIG1       -0.0617
     37 H           0.3118   -5.2880    2.0623 H       1  LIG1        0.0618
     38 C           1.7419   -3.8462    1.9886 C.ar    1  LIG1       -0.0607
     39 H           2.4751   -4.4280    2.1518 H       1  LIG1        0.0618
     40 C           1.9695   -2.4923    1.7951 C.ar    1  LIG1       -0.0480
     41 H           2.8566   -2.1513    1.7896 H       1  LIG1        0.0629
     42 S           4.3603    3.5207    8.4674 S.3     2  LIG2       -0.1006
     43 O           1.1061    4.5154    6.6748 O.3     2  LIG2       -0.4638
     44 O           3.0429    3.9455    5.6884 O.2     2  LIG2       -0.2490
     45 O           1.9630    2.2191    9.9779 O.2     2  LIG2       -0.4826
     46 C           2.3161    3.9504    6.6492 C.2     2  LIG2        0.3302
     47 C           0.5549    4.9300    5.3995 C.3     2  LIG2        0.0897
     48 H           0.6259    4.1937    4.7424 H       2  LIG2        0.0694
     49 H           1.0521    5.7120    5.0492 H       2  LIG2        0.0694
     50 C          -0.8811    5.2880    5.6202 C.3     2  LIG2       -0.0306
     51 H          -1.2904    5.5370    4.7637 H       2  LIG2        0.0262
     52 H          -0.9380    6.0431    6.2423 H       2  LIG2        0.0262
     53 H          -1.3555    4.5175    5.9994 H       2  LIG2        0.0262
     54 C           2.6782    3.3784    7.9833 C.3     2  LIG2        0.1945
     55 C           1.7771    2.6534    8.6911 C.3     2  LIG2        0.2068
     56 C           2.5612    3.0610   10.9093 C.2     2  LIG2        0.0790
     57 H           2.6344    3.9919   10.7333 H       2  LIG2        0.1017
     58 C           3.0225    2.5679   12.0287 C.2     2  LIG2       -0.0642
     59 H           2.9492    1.6371   12.2034 H       2  LIG2        0.0565
     60 H           3.4324    3.1400   12.6678 H       2  LIG2        0.0565
     61 C           0.5047    2.1538    8.1414 C.ar    2  LIG2        0.0019
     62 C          -0.6780    2.3149    8.8662 C.ar    2  LIG2       -0.0546
     63 H          -0.6587    2.7103    9.7278 H       2  LIG2        0.0622
     64 C          -1.8791    1.8959    8.3204 C.ar    2  LIG2       -0.0614
     65 H          -2.6873    2.0260    8.8031 H       2  LIG2        0.0618
     66 C          -1.9140    1.2897    7.0817 C.ar    2  LIG2       -0.0617
     67 H          -2.7428    1.0106    6.7110 H       2  LIG2        0.0618
     68 C          -0.7355    1.0895    6.3769 C.ar    2  LIG2       -0.0614
     69 H          -0.7549    0.6550    5.5307 H       2  LIG2        0.0618
     70 C           0.4659    1.5224    6.9027 C.ar    2  LIG2       -0.0546
     71 H           1.2704    1.3881    6.4170 H       2  LIG2        0.0622
     72 C           4.5509    5.2571    8.7776 C.ar    2  LIG2        0.0091
     73 C           5.8225    5.6981    9.1500 C.ar    2  LIG2       -0.0483
     74 H           6.5385    5.0773    9.2164 H       2  LIG2        0.0629
     75 C           6.0403    7.0317    9.4193 C.ar    2  LIG2       -0.0607
     76 H           6.9053    7.3279    9.6766 H       2  LIG2        0.0618
     77 C           4.9990    7.9463    9.3153 C.ar    2  LIG2       -0.0617
     78 H           5.1506    8.8657    9.5019 H       2  LIG2        0.0618
     79 C           3.7462    7.5126    8.9408 C.ar    2  LIG2       -0.0607
     80 H           3.0369    8.1391    8.8585 H       2  LIG2        0.0618
     81 C           3.5110    6.1701    8.6851 C.ar    2  LIG2       -0.0483
     82 H           2.6389    5.8755    8.4495 H       2  LIG2        0.0629
@<TRIPOS>BOND
     1    18    17    1
     2    19    17    1
     3    17    15    2
     4    15    16    1
     5    15     4    1
     6     4    14    1
     7    30    29    1
     8     1    31    1
     9     1    13    1
    10    33    32    1
    11    14    13    2
    12    14    20    1
    13    32    31   ar
    14    32    34   ar
    15    31    40   ar
    16    35    34    1
    17    29    20   ar
    18    29    27   ar
    19    34    36   ar
    20    41    40    1
    21    40    38   ar
    22    36    38   ar
    23    36    37    1
    24    38    39    1
    25    28    27    1
    26    13     5    1
    27    20    21   ar
    28    27    25   ar
    29    21    22    1
    30    21    23   ar
    31     5     2    1
    32     5     3    2
    33    25    26    1
    34    25    23   ar
    35     2     6    1
    36    23    24    1
    37    48    47    1
    38    51    50    1
    39    11     9    1
    40    10     9    1
    41    49    47    1
    42     6     9    1
    43     6     7    1
    44     6     8    1
    45     9    12    1
    46    47    50    1
    47    47    43    1
    48    69    68    1
    49    50    53    1
    50    50    52    1
    51    44    46    2
    52    68    70   ar
    53    68    66   ar
    54    71    70    1
    55    46    43    1
    56    46    54    1
    57    67    66    1
    58    70    61   ar
    59    66    64   ar
    60    54    42    1
    61    54    55    1
    62    61    55    1
    63    61    62   ar
    64    64    65    1
    65    64    62   ar
    66    82    81    1
    67    42    72    1
    68    81    72   ar
    69    81    79   ar
    70    55    45    1
    71    72    73   ar
    72    80    79    1
    73    62    63    1
    74    79    77   ar
    75    73    74    1
    76    73    75   ar
    77    77    75   ar
    78    77    78    1
    79    75    76    1
    80    45    56    1
    81    57    56    1
    82    56    58    2
    83    58    59    1
    84    58    60    1
