@<TRIPOS>MOLECULE
C37 H29 N O S
 69 75 0 0 0
SMALL
GASTEIGER

@<TRIPOS>ATOM
      1 S           2.7381   10.2453    3.4888 S.2     1  LIG1       -0.0909
      2 O           3.0539   11.9315    6.2557 O.2     1  LIG1       -0.2694
      3 N           3.3669   13.5587    4.7397 N.am    1  LIG1       -0.2971
      4 C           6.4726   11.5403    3.9979 C.ar    1  LIG1       -0.0006
      5 C           6.3464    9.2721    2.2229 C.ar    1  LIG1       -0.0013
      6 C           3.9232   11.2856    4.1496 C.ar    1  LIG1        0.0824
      7 C           5.1923   10.9445    3.6884 C.ar    1  LIG1        0.0102
      8 C           7.5395    9.8553    2.5565 C.ar    1  LIG1       -0.0013
      9 C           6.5557   12.7052    4.9227 C.ar    1  LIG1       -0.0167
     10 C           6.2468    8.0547    1.3692 C.ar    1  LIG1       -0.0167
     11 C           8.9431   11.6013    3.7101 C.ar    1  LIG1       -0.0167
     12 C           5.1393    9.8300    2.7853 C.ar    1  LIG1       -0.0012
     13 C           7.5917   11.0076    3.4295 C.ar    1  LIG1       -0.0013
     14 C           8.8167    9.2951    2.0074 C.ar    1  LIG1       -0.0167
     15 C           6.2311   12.5651    6.2605 C.ar    1  LIG1       -0.0540
     16 C           6.9817   13.9517    4.4735 C.ar    1  LIG1       -0.0540
     17 C           5.5985    8.1017    0.1517 C.ar    1  LIG1       -0.0540
     18 C           7.0557   15.0281    5.3297 C.ar    1  LIG1       -0.0612
     19 C           3.4275   12.2808    5.1382 C.2     1  LIG1        0.2538
     20 C           9.7721    8.7535    2.8744 C.ar    1  LIG1       -0.0540
     21 C           6.7938    6.8560    1.7870 C.ar    1  LIG1       -0.0540
     22 C           3.8555    9.3655    2.5902 C.ar    1  LIG1       -0.0152
     23 C           3.6451   14.0612    3.4030 C.3     1  LIG1        0.0150
     24 C           9.0963    9.3464    0.6647 C.ar    1  LIG1       -0.0540
     25 C           6.7030    5.7238    0.9862 C.ar    1  LIG1       -0.0612
     26 C           2.9322   14.6230    5.6488 C.3     1  LIG1        0.0150
     27 C           9.5258   11.4515    4.9612 C.ar    1  LIG1       -0.0540
     28 C           6.0528    5.7910   -0.2168 C.ar    1  LIG1       -0.0617
     29 C          11.2476    8.3964    1.0296 C.ar    1  LIG1       -0.0617
     30 C           9.6420   12.2543    2.7190 C.ar    1  LIG1       -0.0540
     31 C          11.4854   12.5916    4.2098 C.ar    1  LIG1       -0.0617
     32 C          10.9832    8.3089    2.3674 C.ar    1  LIG1       -0.0612
     33 C           6.7190   14.8754    6.6543 C.ar    1  LIG1       -0.0617
     34 C          10.3094    8.9012    0.1662 C.ar    1  LIG1       -0.0612
     35 C          10.7961   11.9484    5.1936 C.ar    1  LIG1       -0.0612
     36 C           6.3162   13.6480    7.1251 C.ar    1  LIG1       -0.0612
     37 C          10.9107   12.7565    2.9828 C.ar    1  LIG1       -0.0612
     38 C           2.8107   15.8016    4.6782 C.3     1  LIG1       -0.0357
     39 C           5.5060    6.9777   -0.6382 C.ar    1  LIG1       -0.0612
     40 C           3.6244   15.5634    3.5331 C.3     1  LIG1       -0.0357
     41 H           5.9543   11.7387    6.5845 H       1  LIG1        0.0624
     42 H           7.2206   14.0592    3.5812 H       1  LIG1        0.0624
     43 H           5.2213    8.9012   -0.1385 H       1  LIG1        0.0624
     44 H           7.3321   15.8565    5.0130 H       1  LIG1        0.0618
     45 H           9.5949    8.6916    3.7847 H       1  LIG1        0.0624
     46 H           7.2258    6.8067    2.6095 H       1  LIG1        0.0624
     47 H           3.6350    8.6549    2.0315 H       1  LIG1        0.0700
     48 H           2.9674   13.7620    2.7756 H       1  LIG1        0.0465
     49 H           4.5117   13.7539    3.0947 H       1  LIG1        0.0465
     50 H           8.4582    9.6869    0.0795 H       1  LIG1        0.0624
     51 H           7.0829    4.9239    1.2680 H       1  LIG1        0.0618
     52 H           3.5915   14.7940    6.3388 H       1  LIG1        0.0465
     53 H           2.0809   14.4113    6.0631 H       1  LIG1        0.0465
     54 H           9.0645   11.0182    5.6428 H       1  LIG1        0.0624
     55 H           5.9829    5.0318   -0.7490 H       1  LIG1        0.0618
     56 H          12.0710    8.1135    0.7032 H       1  LIG1        0.0618
     57 H           9.2657   12.3575    1.8749 H       1  LIG1        0.0624
     58 H          12.3426   12.9132    4.3736 H       1  LIG1        0.0618
     59 H          11.6196    7.9486    2.9418 H       1  LIG1        0.0618
     60 H           6.7645   15.6021    7.2311 H       1  LIG1        0.0618
     61 H          10.4867    8.9460   -0.7466 H       1  LIG1        0.0618
     62 H          11.1832   11.8446    6.0317 H       1  LIG1        0.0618
     63 H           6.1001   13.5442    8.0247 H       1  LIG1        0.0618
     64 H          11.3735   13.2124    2.3156 H       1  LIG1        0.0618
     65 H           1.8859   15.9095    4.4073 H       1  LIG1        0.0281
     66 H           3.0966   16.6178    5.1178 H       1  LIG1        0.0281
     67 H           5.0704    7.0204   -1.4583 H       1  LIG1        0.0618
     68 H           4.5193   15.9115    3.6655 H       1  LIG1        0.0281
     69 H           3.2395   15.9746    2.7431 H       1  LIG1        0.0281
@<TRIPOS>BOND
     1    67    39    1
     2    55    28    1
     3    61    34    1
     4    39    28   ar
     5    39    17   ar
     6    28    25   ar
     7    43    17    1
     8    50    24    1
     9    17    10   ar
    10    34    24   ar
    11    34    29   ar
    12    24    14   ar
    13    56    29    1
    14    25    51    1
    15    25    21   ar
    16    29    32   ar
    17    10    21   ar
    18    10     5    1
    19    21    46    1
    20    57    30    1
    21    14     8    1
    22    14    20   ar
    23    47    22    1
    24     5     8   ar
    25     5    12   ar
    26    64    37    1
    27    32    20   ar
    28    32    59    1
    29     8    13   ar
    30    22    12   ar
    31    22     1   ar
    32    30    37   ar
    33    30    11   ar
    34    69    40    1
    35    48    23    1
    36    12     7   ar
    37    20    45    1
    38    37    31   ar
    39    49    23    1
    40    23    40    1
    41    23     3    1
    42    13    11    1
    43    13     4   ar
    44     1     6   ar
    45    40    68    1
    46    40    38    1
    47    42    16    1
    48     7     4   ar
    49     7     6   ar
    50    11    27   ar
    51     4     9    1
    52     6    19    1
    53    31    58    1
    54    31    35   ar
    55    65    38    1
    56    16     9   ar
    57    16    18   ar
    58    38    66    1
    59    38    26    1
    60     3    19   am
    61     3    26    1
    62     9    15   ar
    63    27    35   ar
    64    27    54    1
    65    44    18    1
    66    19     2    2
    67    35    62    1
    68    18    33   ar
    69    26    53    1
    70    26    52    1
    71    15    41    1
    72    15    36   ar
    73    33    36   ar
    74    33    60    1
    75    36    63    1
