@<TRIPOS>MOLECULE
C29 H24 F N3 O3
 120 132 0 0 0
SMALL
GASTEIGER

@<TRIPOS>ATOM
      1 F           5.2986   16.2997    3.7969 F       1  LIG1       -0.2055
      2 O           2.6305   10.9139    0.5658 O.2     1  LIG1       -0.2730
      3 O           6.0790    8.3409    3.7710 O.2     1  LIG1       -0.2741
      4 O           7.7438   10.1263   -0.0667 O.2     1  LIG1       -0.2748
      5 N           2.7957    9.0590    2.8338 N.3     1  LIG1       -0.2809
      6 N           7.2329    9.1199    1.9488 N.am    1  LIG1       -0.2098
      7 N           3.0922    8.9324   -0.4904 N.am    1  LIG1       -0.2833
      8 H           2.5811    9.1252   -1.2670 H       1  LIG1        0.1549
      9 C           2.9186   10.3535    3.5380 C.3     1  LIG1        0.0196
     10 H           2.3715   11.0487    3.0718 H       1  LIG1        0.0469
     11 C           2.3537   10.0991    4.9482 C.3     1  LIG1       -0.0355
     12 H           3.0478   10.2487    5.6377 H       1  LIG1        0.0281
     13 H           1.5849   10.6961    5.1318 H       1  LIG1        0.0281
     14 C           1.9111    8.6309    4.9304 C.3     1  LIG1       -0.0387
     15 H           2.0579    8.2045    5.8116 H       1  LIG1        0.0278
     16 H           0.9545    8.5517    4.6896 H       1  LIG1        0.0278
     17 C           2.7975    8.0023    3.8646 C.3     1  LIG1        0.0005
     18 H           3.7108    7.8288    4.2069 H       1  LIG1        0.0427
     19 H           2.4105    7.1586    3.5212 H       1  LIG1        0.0427
     20 C           4.4191   10.7396    3.4903 C.3     1  LIG1        0.0167
     21 H           4.8389   10.3530    4.3113 H       1  LIG1        0.0375
     22 C           4.6698   12.2313    3.5396 C.ar    1  LIG1       -0.0415
     23 C           5.5569   12.7583    4.4754 C.ar    1  LIG1       -0.0555
     24 H           6.0201   12.1707    5.0607 H       1  LIG1        0.0621
     25 C           5.7774   14.1279    4.5700 C.ar    1  LIG1       -0.0262
     26 H           6.3807   14.4827    5.2129 H       1  LIG1        0.0646
     27 C           5.1006   14.9510    3.7098 C.ar    1  LIG1        0.1234
     28 C           4.2205   14.4814    2.7623 C.ar    1  LIG1       -0.0262
     29 H           3.7706   15.0800    2.1774 H       1  LIG1        0.0646
     30 C           4.0060   13.1128    2.6826 C.ar    1  LIG1       -0.0555
     31 H           3.4001   12.7710    2.0368 H       1  LIG1        0.0621
     32 C           5.0198    9.9553    2.2704 C.3     1  LIG1        0.0952
     33 C           6.1300    9.0417    2.7903 C.2     1  LIG1        0.2361
     34 C           7.0102    9.9956    0.8794 C.2     1  LIG1        0.2273
     35 C           5.7276   10.7277    1.1510 C.3     1  LIG1        0.0420
     36 H           5.1642   10.7522    0.3378 H       1  LIG1        0.0370
     37 H           5.9131   11.6576    1.4352 H       1  LIG1        0.0370
     38 C           8.4369    8.3546    2.1516 C.ar    1  LIG1        0.0439
     39 C           9.0285    8.3352    3.4026 C.ar    1  LIG1       -0.0398
     40 H           8.6516    8.8268    4.1228 H       1  LIG1        0.0636
     41 C          10.1795    7.5869    3.5888 C.ar    1  LIG1       -0.0600
     42 H          10.5816    7.5513    4.4490 H       1  LIG1        0.0618
     43 C          10.7468    6.8954    2.5436 C.ar    1  LIG1       -0.0616
     44 H          11.5401    6.3907    2.6804 H       1  LIG1        0.0618
     45 C          10.1581    6.9378    1.2960 C.ar    1  LIG1       -0.0600
     46 H          10.5565    6.4721    0.5697 H       1  LIG1        0.0618
     47 C           8.9901    7.6556    1.0952 C.ar    1  LIG1       -0.0398
     48 H           8.5740    7.6675    0.2406 H       1  LIG1        0.0636
     49 C           3.7943    9.0615    1.7663 C.3     1  LIG1        0.1413
     50 C           4.1179    7.7042    1.1532 C.ar    1  LIG1        0.0039
     51 C           4.6923    6.5486    1.6597 C.ar    1  LIG1       -0.0545
     52 H           4.9909    6.5186    2.5615 H       1  LIG1        0.0622
     53 C           4.8303    5.4308    0.8363 C.ar    1  LIG1       -0.0613
     54 H           5.2287    4.6399    1.1786 H       1  LIG1        0.0618
     55 C           4.3900    5.4659   -0.4779 C.ar    1  LIG1       -0.0600
     56 H           4.4880    4.6953   -1.0249 H       1  LIG1        0.0618
     57 C           3.8075    6.6102   -1.0077 C.ar    1  LIG1       -0.0401
     58 H           3.5089    6.6400   -1.9092 H       1  LIG1        0.0636
     59 C           3.6804    7.7014   -0.1751 C.ar    1  LIG1        0.0389
     60 C           3.0986    9.7791    0.5623 C.2     1  LIG1        0.2433
     61 F           2.0711    6.2371    7.9016 F       2  LIG2       -0.2055
     62 O           3.6956    2.6347    2.5965 O.2     2  LIG2       -0.2730
     63 O           7.7564    0.9322    5.6412 O.2     2  LIG2       -0.2741
     64 O           3.7029   -0.9971    6.4595 O.2     2  LIG2       -0.2748
     65 N           5.8995   -0.3170    6.1671 N.am    2  LIG2       -0.2098
     66 N           6.6227    2.6744    2.8560 N.3     2  LIG2       -0.2809
     67 N           4.3739    0.7118    1.5508 N.am    2  LIG2       -0.2833
     68 H           3.7441    0.7478    0.8770 H       2  LIG2        0.1549
     69 C           6.2661    3.7770    3.7710 C.3     2  LIG2        0.0196
     70 H           5.4824    4.2777    3.4038 H       2  LIG2        0.0469
     71 C           7.5018    4.6945    3.7955 C.3     2  LIG2       -0.0355
     72 H           7.2670    5.6095    3.4980 H       2  LIG2        0.0281
     73 H           7.8857    4.7429    4.7070 H       2  LIG2        0.0281
     74 C           8.4871    4.0452    2.8252 C.3     2  LIG2       -0.0387
     75 H           8.3942    4.4281    1.9164 H       2  LIG2        0.0278
     76 H           9.4196    4.1675    3.1327 H       2  LIG2        0.0278
     77 C           8.0984    2.5778    2.8397 C.3     2  LIG2        0.0005
     78 H           8.4228    2.1075    2.0310 H       2  LIG2        0.0427
     79 H           8.4425    2.1191    3.6473 H       2  LIG2        0.0427
     80 C           5.8844    3.1369    5.1350 C.3     2  LIG2        0.0167
     81 H           6.7104    3.1410    5.6986 H       2  LIG2        0.0375
     82 C           4.8424    3.9389    5.8798 C.ar    2  LIG2       -0.0415
     83 C           5.0964    4.3944    7.1695 C.ar    2  LIG2       -0.0555
     84 H           5.9166    4.1667    7.5904 H       2  LIG2        0.0621
     85 C           4.1725    5.1771    7.8549 C.ar    2  LIG2       -0.0262
     86 H           4.3575    5.4931    8.7312 H       2  LIG2        0.0646
     87 C           2.9950    5.4804    7.2367 C.ar    2  LIG2        0.1234
     88 C           2.6922    5.0622    5.9662 C.ar    2  LIG2       -0.0262
     89 H           1.8662    5.2934    5.5594 H       2  LIG2        0.0646
     90 C           3.6281    4.2933    5.2937 C.ar    2  LIG2       -0.0555
     91 H           3.4372    4.0004    4.4098 H       2  LIG2        0.0621
     92 C           5.5573    1.6279    4.8162 C.3     2  LIG2        0.0952
     93 C           4.2112    1.0563    5.2763 C.3     2  LIG2        0.0420
     94 H           3.7466    1.7021    5.8653 H       2  LIG2        0.0370
     95 H           3.6319    0.8694    4.4954 H       2  LIG2        0.0370
     96 C           4.5065   -0.2124    6.0229 C.2     2  LIG2        0.2273
     97 C           6.5655    0.7491    5.5649 C.2     2  LIG2        0.2361
     98 C           6.5711   -1.3894    6.8580 C.ar    2  LIG2        0.0439
     99 C           6.0927   -2.6825    6.7141 C.ar    2  LIG2       -0.0398
    100 H           5.3411   -2.8574    6.1596 H       2  LIG2        0.0636
    101 C           6.7242   -3.7195    7.3883 C.ar    2  LIG2       -0.0600
    102 H           6.3970   -4.6064    7.3019 H       2  LIG2        0.0618
    103 C           7.8227   -3.4708    8.1820 C.ar    2  LIG2       -0.0616
    104 H           8.2539   -4.1846    8.6370 H       2  LIG2        0.0618
    105 C           8.2962   -2.1816    8.3145 C.ar    2  LIG2       -0.0600
    106 H           9.0578   -2.0138    8.8574 H       2  LIG2        0.0618
    107 C           7.6710   -1.1264    7.6617 C.ar    2  LIG2       -0.0398
    108 H           7.9913   -0.2384    7.7643 H       2  LIG2        0.0636
    109 C           5.8192    1.5105    3.2481 C.3     2  LIG2        0.1413
    110 C           6.3154    0.1970    2.6617 C.ar    2  LIG2        0.0039
    111 C           7.4458   -0.5699    2.8987 C.ar    2  LIG2       -0.0545
    112 H           8.0527   -0.3291    3.5893 H       2  LIG2        0.0622
    113 C           7.6825   -1.6968    2.1145 C.ar    2  LIG2       -0.0613
    114 H           8.4470   -2.2347    2.2832 H       2  LIG2        0.0618
    115 C           6.8156   -2.0406    1.0932 C.ar    2  LIG2       -0.0600
    116 H           7.0012   -2.8035    0.5581 H       2  LIG2        0.0618
    117 C           5.6804   -1.2875    0.8392 C.ar    2  LIG2       -0.0401
    118 H           5.0819   -1.5200    0.1392 H       2  LIG2        0.0636
    119 C           5.4514   -0.1907    1.6369 C.ar    2  LIG2        0.0389
    120 C           4.4866    1.7045    2.4518 C.2     2  LIG2        0.2433
@<TRIPOS>BOND
     1    58    57    1
     2     8     7    1
     3    56    55    1
     4    57    55   ar
     5    57    59   ar
     6     7    59    1
     7     7    60   am
     8    55    53   ar
     9    59    50   ar
    10     4    34    2
    11   118   117    1
    12    48    47    1
    13    36    35    1
    14   116   115    1
    15    60     2    2
    16    60    49    1
    17    46    45    1
    18    53    54    1
    19    53    51   ar
    20   117   115   ar
    21   117   119   ar
    22    68    67    1
    23    34    35    1
    24    34     6   am
    25   115   113   ar
    26    47    45   ar
    27    47    38   ar
    28    35    37    1
    29    35    32    1
    30    50    51   ar
    31    50    49    1
    32    45    43   ar
    33    67   119    1
    34    67   120   am
    35   119   110   ar
    36    51    52    1
    37    49    32    1
    38    49     5    1
    39    75    74    1
    40     6    38    1
    41     6    33   am
    42    78    77    1
    43    31    30    1
    44   113   114    1
    45   113   111   ar
    46    38    39   ar
    47    29    28    1
    48    32    33    1
    49    32    20    1
    50   120    62    2
    51   120   109    1
    52    43    44    1
    53    43    41   ar
    54   110   111   ar
    55   110   109    1
    56    30    28   ar
    57    30    22   ar
    58    28    27   ar
    59    33     3    2
    60    74    77    1
    61    74    76    1
    62    74    71    1
    63     5     9    1
    64     5    17    1
    65    77    66    1
    66    77    79    1
    67    66   109    1
    68    66    69    1
    69   111   112    1
    70    10     9    1
    71   109    92    1
    72    39    41   ar
    73    39    40    1
    74    70    69    1
    75    20     9    1
    76    20    22    1
    77    20    21    1
    78    72    71    1
    79    19    17    1
    80     9    11    1
    81    22    23   ar
    82    41    42    1
    83    27     1    1
    84    27    25   ar
    85    69    71    1
    86    69    80    1
    87    71    73    1
    88    17    18    1
    89    17    14    1
    90    91    90    1
    91    23    25   ar
    92    23    24    1
    93    95    93    1
    94    25    26    1
    95    16    14    1
    96    92    80    1
    97    92    93    1
    98    92    97    1
    99    14    11    1
   100    14    15    1
   101    11    13    1
   102    11    12    1
   103    80    81    1
   104    80    82    1
   105    93    94    1
   106    93    96    1
   107    90    82   ar
   108    90    88   ar
   109    89    88    1
   110    97    63    2
   111    97    65   am
   112    82    83   ar
   113    88    87   ar
   114    96    65   am
   115    96    64    2
   116   100    99    1
   117    65    98    1
   118    99    98   ar
   119    99   101   ar
   120    98   107   ar
   121    83    84    1
   122    83    85   ar
   123    87    85   ar
   124    87    61    1
   125   102   101    1
   126   101   103   ar
   127   107   108    1
   128   107   105   ar
   129    85    86    1
   130   103   105   ar
   131   103   104    1
   132   105   106    1
