@<TRIPOS>MOLECULE
C20 H24 O6
 50 54 0 0 0
SMALL
GASTEIGER

@<TRIPOS>ATOM
      1 O           8.2513    3.0617    6.2257 O.3     1  LIG1       -0.3596
      2 O           9.7688    5.5625   -0.1336 O.3     1  LIG1       -0.3826
      3 O           3.2209    0.8181    3.2528 O.2     1  LIG1       -0.2933
      4 O           9.6663    3.7248    3.8896 O.2     1  LIG1       -0.2892
      5 O           4.6065    0.2490    5.6899 O.3     1  LIG1       -0.3596
      6 O           3.4849    4.7669    1.6758 O.3     1  LIG1       -0.3829
      7 C           6.3981    4.2875    2.6559 C.2     1  LIG1       -0.0726
      8 C           8.4592    3.8633    3.8791 C.2     1  LIG1        0.1931
      9 C           5.5897    3.3076    3.4582 C.3     1  LIG1        0.0003
     10 C           4.3848    1.1223    3.3690 C.2     1  LIG1        0.1781
     11 C           7.5706    3.4781    5.0331 C.3     1  LIG1        0.1583
     12 C           5.2701    0.5238    4.4430 C.3     1  LIG1        0.1575
     13 C           9.1031    4.6439    0.7093 C.3     1  LIG1        0.0514
     14 C           8.4826    5.4253    1.8544 C.3     1  LIG1       -0.0011
     15 C           6.3201    2.7130    4.6919 C.3     1  LIG1        0.0144
     16 C           7.1810    0.9767    3.0838 C.2     1  LIG1       -0.0803
     17 C           4.2909    2.5457    1.2851 C.3     1  LIG1       -0.0130
     18 C           7.7141    4.5179    2.7856 C.2     1  LIG1       -0.0034
     19 C           5.1418    2.1169    2.4870 C.3     1  LIG1        0.0586
     20 C           6.4199    1.3970    2.0861 C.2     1  LIG1       -0.0736
     21 C          10.2968    4.9397   -1.2854 C.3     1  LIG1        0.0365
     22 C           7.6151    4.3684    6.2020 C.3     1  LIG1        0.0856
     23 C           6.6201    1.2055    4.4718 C.3     1  LIG1        0.0219
     24 C           5.0684   -0.8483    4.8868 C.3     1  LIG1        0.0856
     25 C           3.0829    3.4174    1.5856 C.3     1  LIG1        0.0485
     26 C           2.3674    5.6105    1.9807 C.3     1  LIG1        0.0364
     27 H           5.9446    4.7794    2.0104 H       1  LIG1        0.0579
     28 H           4.7818    3.7645    3.7732 H       1  LIG1        0.0360
     29 H           9.7322    3.9910    1.0531 H       1  LIG1        0.0563
     30 H           8.4139    4.1754    0.2135 H       1  LIG1        0.0563
     31 H           7.8838    6.0993    1.4965 H       1  LIG1        0.0336
     32 H           9.1818    5.8783    2.3515 H       1  LIG1        0.0336
     33 H           5.7123    2.7846    5.4579 H       1  LIG1        0.0346
     34 H           8.0053    0.5689    2.9424 H       1  LIG1        0.0573
     35 H           4.8639    3.0244    0.6646 H       1  LIG1        0.0300
     36 H           3.9812    1.7449    0.8330 H       1  LIG1        0.0300
     37 H           6.6520    1.2616    1.1961 H       1  LIG1        0.0579
     38 H          10.7302    5.5973   -1.8343 H       1  LIG1        0.0523
     39 H           9.5849    4.5288   -1.7815 H       1  LIG1        0.0523
     40 H          10.9327    4.2704   -1.0245 H       1  LIG1        0.0523
     41 H           8.1864    5.1506    6.1555 H       1  LIG1        0.0594
     42 H           6.8004    4.4852    6.7145 H       1  LIG1        0.0594
     43 H           7.2020    0.8398    5.1696 H       1  LIG1        0.0380
     44 H           4.4043   -1.3814    4.4235 H       1  LIG1        0.0594
     45 H           5.8442   -1.3417    5.1982 H       1  LIG1        0.0594
     46 H           2.4242    3.3185    0.8803 H       1  LIG1        0.0560
     47 H           2.6779    3.1395    2.4208 H       1  LIG1        0.0560
     48 H           2.6593    6.5235    2.0269 H       1  LIG1        0.0523
     49 H           1.9912    5.3514    2.8247 H       1  LIG1        0.0523
     50 H           1.7020    5.5210    1.2940 H       1  LIG1        0.0523
@<TRIPOS>BOND
     1    38    21    1
     2    39    21    1
     3    21    40    1
     4    21     2    1
     5     2    13    1
     6    30    13    1
     7    35    17    1
     8    13    29    1
     9    13    14    1
    10    36    17    1
    11    46    25    1
    12    37    20    1
    13    17    25    1
    14    17    19    1
    15    50    26    1
    16    31    14    1
    17    25     6    1
    18    25    47    1
    19     6    26    1
    20    14    32    1
    21    14    18    1
    22    26    48    1
    23    26    49    1
    24    27     7    1
    25    20    19    1
    26    20    16    2
    27    19    10    1
    28    19     9    1
    29     7    18    2
    30     7     9    1
    31    18     8    1
    32    34    16    1
    33    16    23    1
    34     3    10    2
    35    10    12    1
    36     9    28    1
    37     9    15    1
    38     8     4    2
    39     8    11    1
    40    44    24    1
    41    12    23    1
    42    12    24    1
    43    12     5    1
    44    23    15    1
    45    23    43    1
    46    15    11    1
    47    15    33    1
    48    24    45    1
    49    24     5    1
    50    11    22    1
    51    11     1    1
    52    41    22    1
    53    22     1    1
    54    22    42    1
