@<TRIPOS>MOLECULE
C6 H6 N O5 P, H2 O
 44 42 0 0 0
SMALL
GASTEIGER

@<TRIPOS>ATOM
      1 P           9.5006    7.1203    5.1318 P.3     1  LIG1        0.3879
      2 O           9.3161    5.9675    6.0694 O.3     1  LIG1       -0.1383
      3 O          10.8297    7.8131    5.0967 O.2     1  LIG1       -0.2536
      4 O           9.0511    6.6728    3.7015 O.3     1  LIG1       -0.3208
      5 H           9.3633    7.2043    3.1311 H       1  LIG1        0.2199
      6 O           9.8666    8.4858    7.8586 O.2     1  LIG1       -0.2454
      7 O           9.9050   10.7255    7.6462 O.3     1  LIG1       -0.4773
      8 H          10.5306   10.6727    8.2051 H       1  LIG1        0.2954
      9 N           7.1459    8.4056    4.6755 N.pl3   1  LIG1       -0.3279
     10 H           7.0432    7.7139    4.1422 H       1  LIG1        0.1470
     11 C           8.2408    8.4319    5.4679 C.3     1  LIG1        0.2048
     12 C           8.3754    9.5152    6.3369 C.2     1  LIG1        0.0744
     13 C           7.4291   10.5447    6.3178 C.2     1  LIG1       -0.0478
     14 H           7.5338   11.2961    6.8895 H       1  LIG1        0.0624
     15 C           6.3351   10.4704    5.4637 C.2     1  LIG1       -0.0477
     16 H           5.6901   11.1679    5.4424 H       1  LIG1        0.0630
     17 C           6.2027    9.3643    4.6462 C.2     1  LIG1       -0.0094
     18 H           5.4529    9.2819    4.0687 H       1  LIG1        0.0778
     19 C           9.4778    9.5190    7.3525 C.2     1  LIG1        0.3356
     20 P           9.6769    8.0430    0.3758 P.3     2  LIG2        0.4018
     21 O           8.3170    7.5755   -0.0388 O.2     2  LIG2       -0.2497
     22 O           9.9628    8.0845    1.8497 O.3     2  LIG2       -0.1354
     23 O          10.0928    9.3872   -0.2828 O.3     2  LIG2       -0.3184
     24 H           9.4377    9.7101   -0.6970 H       2  LIG2        0.2202
     25 O           9.4414    7.2269   -2.7656 O.2     2  LIG2       -0.2454
     26 O           9.4691    4.9739   -2.8549 O.3     2  LIG2       -0.4773
     27 H           8.8137    5.0741   -3.3698 H       2  LIG2        0.2954
     28 N          11.9661    6.6538    0.6551 N.pl3   2  LIG2       -0.3141
     29 H          11.9882    7.1603    1.3746 H       2  LIG2        0.1519
     30 C          10.9421    6.8307   -0.2098 C.2     2  LIG2        0.1332
     31 C          10.9057    6.0080   -1.3369 C.2     2  LIG2        0.0730
     32 C          11.9008    5.0387   -1.5188 C.3     2  LIG2        0.0230
     33 H          11.8633    4.4590   -2.2707 H       2  LIG2        0.0404
     34 C          12.9416    4.9190   -0.6076 C.2     2  LIG2       -0.0616
     35 H          13.6293    4.2765   -0.7356 H       2  LIG2        0.0591
     36 C          12.9509    5.7587    0.4905 C.2     2  LIG2       -0.0093
     37 H          13.6539    5.7016    1.1271 H       2  LIG2        0.0778
     38 C           9.8421    6.1502   -2.3848 C.2     2  LIG2        0.3355
     39 O           6.1240    7.9119    1.5338 O.3     3  HOH3       -0.4105
     40 H           6.8194    7.7806    1.0807 H       0  HOH0        0.2052
     41 H           6.0171    7.2353    2.0203 H       0  HOH0        0.2052
     42 O          11.7306    4.4787    6.5867 O.3     4  HOH4       -0.4105
     43 H          11.1344    4.9750    6.2660 H       0  HOH0        0.2052
     44 H          12.3188    4.4952    5.9876 H       0  HOH0        0.2052
@<TRIPOS>BOND
     1    27    26    1
     2    26    38    1
     3    25    38    2
     4    38    31    1
     5    33    32    1
     6    32    31    1
     7    32    34    1
     8    31    30    2
     9    35    34    1
    10    24    23    1
    11    34    36    2
    12    23    20    1
    13    30    20    1
    14    30    28    1
    15    21    20    2
    16    20    22    1
    17    36    28    1
    18    36    37    1
    19    28    29    1
    20    40    39    1
    21    39    41    1
    22     5     4    1
    23     4     1    1
    24    18    17    1
    25    10     9    1
    26    17     9    1
    27    17    15    2
    28     9    11    1
    29     3     1    2
    30     1    11    1
    31     1     2    1
    32    16    15    1
    33    15    13    1
    34    11    12    1
    35    44    42    1
    36    43    42    1
    37    13    12    2
    38    13    14    1
    39    12    19    1
    40    19     7    1
    41    19     6    2
    42     7     8    1
