@<TRIPOS>MOLECULE
C10 H2 Cl2 I4 N2
 20 21 0 0 0
SMALL
GASTEIGER

@<TRIPOS>ATOM
      1 I           4.9804    2.7516    9.7202 I       1  LIG1       -0.0208
      2 I           6.7428    4.6249   12.2770 I       1  LIG1       -0.0405
      3 I           7.3632   10.8832   12.0884 I       1  LIG1       -0.0208
      4 I           5.4911    8.4255   10.1703 I       1  LIG1       -0.0405
      5 CL          2.0584    7.9348   12.4170 Cl      1  LIG1       -0.0813
      6 CL          4.4494    5.9224   15.2105 Cl      1  LIG1       -0.0813
      7 N           2.7842    4.5841   10.4636 N.ar    1  LIG1       -0.2467
      8 N           6.5733    9.1322   14.3140 N.ar    1  LIG1       -0.2467
      9 C           2.8701    6.5223   11.8484 C.ar    1  LIG1        0.0678
     10 C           4.7997    5.1197   11.6591 C.ar    1  LIG1        0.0540
     11 C           4.2085    6.2840   12.1662 C.ar    1  LIG1        0.0200
     12 C           5.9813    8.1279   14.9617 C.ar    1  LIG1        0.0477
     13 H           6.1134    8.0461   15.8997 H       1  LIG1        0.0845
     14 C           5.6495    8.3286   12.2533 C.ar    1  LIG1        0.0540
     15 C           5.1760    7.1947   14.3118 C.ar    1  LIG1        0.0678
     16 C           4.0620    4.3276   10.7630 C.ar    1  LIG1        0.1152
     17 C           5.0089    7.2787   12.9259 C.ar    1  LIG1        0.0200
     18 C           2.1898    5.6393   11.0193 C.ar    1  LIG1        0.0477
     19 H           1.2683    5.7932   10.8423 H       1  LIG1        0.0845
     20 C           6.4149    9.2399   13.0000 C.ar    1  LIG1        0.1152
@<TRIPOS>BOND
     1     1    16    1
     2     4    14    1
     3     7    16   ar
     4     7    18   ar
     5    16    10   ar
     6    19    18    1
     7    18     9   ar
     8    10    11   ar
     9    10     2    1
    10     9    11   ar
    11     9     5    1
    12     3    20    1
    13    11    17    1
    14    14    17   ar
    15    14    20   ar
    16    17    15   ar
    17    20     8   ar
    18    15    12   ar
    19    15     6    1
    20     8    12   ar
    21    12    13    1
