@<TRIPOS>MOLECULE
1
 52 53 0 0 0
SMALL
GASTEIGER

@<TRIPOS>ATOM
      1 CL          2.1229    3.6592   11.4499 Cl      1  LIG1       -0.0870
      2 CL          4.3189    5.4334   10.9362 Cl      1  LIG1       -0.0870
      3 CL          1.7873    5.8418    9.6533 Cl      1  LIG1       -0.0870
      4 O           2.2188    2.7677    7.0721 O.3     2  LIG2       -0.2181
      5 O           4.0930    4.7477    7.1368 O.3     3  HOH3       -0.4105
      6 H           4.8542    4.3834    7.0367 H       0  HOH0        0.2052
      7 H           3.8102    5.0250    6.3847 H       0  HOH0        0.2052
      8 O           1.1938   -0.7023    7.4787 O.2     2  LIG2       -0.2742
      9 C           5.4953    1.7909   10.5166 C.ar    2  LIG2       -0.0600
     10 H           5.9282    2.0392   11.3005 H       2  LIG2        0.0618
     11 C           6.0357    2.1496    9.2724 C.ar    2  LIG2       -0.0614
     12 H           6.8216    2.6449    9.2357 H       2  LIG2        0.0618
     13 C           5.4023    1.7688    8.1002 C.ar    2  LIG2       -0.0557
     14 H           5.7739    1.9896    7.2772 H       2  LIG2        0.0621
     15 C           4.2200    1.0638    8.1576 C.ar    2  LIG2       -0.0074
     16 C           3.2739    0.5519    7.0855 C.3     2  LIG2        0.1178
     17 C           3.8814   -0.4774    6.1051 C.3     2  LIG2        0.0074
     18 H           3.1663   -0.7726    5.5043 H       2  LIG2        0.0340
     19 C           4.9798    0.1559    5.2442 C.3     2  LIG2       -0.0210
     20 H           5.7857    0.2401    5.7791 H       2  LIG2        0.0317
     21 H           5.1786   -0.4388    4.5043 H       2  LIG2        0.0317
     22 C           4.6204    1.5039    4.6960 C.2     2  LIG2       -0.0408
     23 C           5.5480    2.0958    3.6960 C.ar    2  LIG2       -0.0219
     24 C           5.2582    3.3155    3.0391 C.ar    2  LIG2       -0.0516
     25 H           4.4433    3.7349    3.2003 H       2  LIG2        0.0624
     26 C           6.1466    3.8936    2.1734 C.ar    2  LIG2       -0.0259
     27 H           5.9443    4.7007    1.7570 H       2  LIG2        0.0646
     28 C           7.3410    3.2658    1.9292 C.ar    2  LIG2        0.1234
     29 F           8.2252    3.8177    1.0733 F       2  LIG2       -0.2055
     30 C           7.6536    2.0641    2.5373 C.ar    2  LIG2       -0.0259
     31 H           8.4630    1.6433    2.3590 H       2  LIG2        0.0646
     32 C           6.7652    1.5094    3.3944 C.ar    2  LIG2       -0.0516
     33 H           6.9821    0.7009    3.7986 H       2  LIG2        0.0624
     34 C           3.5454    2.1551    5.1612 C.2     2  LIG2       -0.0412
     35 H           3.3439    2.9761    4.7754 H       2  LIG2        0.0606
     36 C           2.6448    1.6681    6.2455 C.3     2  LIG2        0.1778
     37 C           4.4267   -1.7247    6.8316 C.3     2  LIG2        0.0487
     38 H           5.1547   -1.4667    7.4176 H       2  LIG2        0.0560
     39 H           3.7255   -2.1151    7.3761 H       2  LIG2        0.0560
     40 O           4.8940   -2.6932    5.8877 O.3     2  LIG2       -0.3947
     41 H           4.2525   -3.0616    5.5348 H       2  LIG2        0.2094
     42 C           2.1776   -0.1062    7.9231 C.2     2  LIG2        0.2338
     43 N           2.4609    0.0455    9.2333 N.am    2  LIG2       -0.2733
     44 C           1.6200   -0.4125   10.3322 C.3     2  LIG2        0.0083
     45 H           1.2366    0.3463   10.7791 H       2  LIG2        0.0433
     46 H           2.1517   -0.9161   10.9525 H       2  LIG2        0.0433
     47 H           0.9181   -0.9686    9.9867 H       2  LIG2        0.0433
     48 C           3.6936    0.7423    9.4079 C.ar    2  LIG2        0.0403
     49 C           4.3188    1.0665   10.5764 C.ar    2  LIG2       -0.0400
     50 H           3.9614    0.8058   11.3945 H       2  LIG2        0.0636
     51 C           2.9044    4.6566   10.2895 C.3     1  LIG1        0.1805
     52 H           3.1904    4.0840    9.5471 H       1  LIG1        0.0806
@<TRIPOS>BOND
     1    29    28    1
     2    27    26    1
     3    28    26   ar
     4    28    30   ar
     5    26    24   ar
     6    31    30    1
     7    30    32   ar
     8    24    25    1
     9    24    23   ar
    10    32    23   ar
    11    32    33    1
    12    23    22    1
    13    21    19    1
    14    22    34    2
    15    22    19    1
    16    35    34    1
    17    34    36    1
    18    19    20    1
    19    19    17    1
    20    18    17    1
    21    41    40    1
    22    40    37    1
    23    17    37    1
    24    17    16    1
    25    36     4    1
    26    36    16    1
    27     7     5    1
    28    37    39    1
    29    37    38    1
    30     6     5    1
    31    16    42    1
    32    16    15    1
    33    14    13    1
    34     8    42    2
    35    42    43   am
    36    13    15   ar
    37    13    11   ar
    38    15    48   ar
    39    43    48    1
    40    43    44    1
    41    12    11    1
    42    11     9   ar
    43    48    49   ar
    44    52    51    1
    45     3    51    1
    46    47    44    1
    47    51     2    1
    48    51     1    1
    49    44    45    1
    50    44    46    1
    51     9    49   ar
    52     9    10    1
    53    49    50    1
