@<TRIPOS>MOLECULE
2(C19 H14 B N5), C12 H12 N4
 106 113 0 0 0
SMALL
GASTEIGER

@<TRIPOS>ATOM
      1 N           1.0146   14.6323   13.3305 N.pl3   1  LIG1        0.5000
      2 N           0.7959   12.4199   13.4591 N.pl3   1  LIG1        0.0000
      3 N           1.8288   12.6964   12.5568 N.2     1  LIG1        0.5000
      4 N           2.8730   16.0431   11.8102 N.ar    1  LIG1        0.0000
      5 N          -4.5467   14.7280   18.9225 N.1     1  LIG1        0.0000
      6 C           1.9085   13.9956   12.5149 C.2     1  LIG1        0.0000
      7 C          -0.8071   13.8663   15.1254 C.ar    1  LIG1        0.0000
      8 C          -1.2596   15.1599   15.4091 C.ar    1  LIG1        0.0000
      9 H          -0.9212   15.8891   14.9031 H       1  LIG1        0.0000
     10 C          -2.1858   15.4084   16.4077 C.ar    1  LIG1        0.0000
     11 H          -2.4813   16.2967   16.5724 H       1  LIG1        0.0000
     12 C          -2.6791   14.3615   17.1634 C.ar    1  LIG1        0.0000
     13 C          -2.2180   13.0734   16.9384 C.ar    1  LIG1        0.0000
     14 H          -2.5234   12.3558   17.4796 H       1  LIG1        0.0000
     15 C          -1.3091   12.8390   15.9183 C.ar    1  LIG1        0.0000
     16 H          -1.0200   11.9482   15.7559 H       1  LIG1        0.0000
     17 C          -3.7083   14.5769   18.1534 C.1     1  LIG1        0.0000
     18 C           0.4997   11.0344   13.6217 C.ar    1  LIG1        0.0000
     19 C           1.5030   10.1359   13.9598 C.ar    1  LIG1        0.0000
     20 H           2.3948   10.4392   14.0844 H       1  LIG1        0.0000
     21 C           1.1951    8.7941   14.1138 C.ar    1  LIG1        0.0000
     22 H           1.8780    8.1777   14.3542 H       1  LIG1        0.0000
     23 C          -0.1031    8.3420   13.9213 C.ar    1  LIG1        0.0000
     24 H          -0.3134    7.4233   14.0390 H       1  LIG1        0.0000
     25 C          -1.0890    9.2418   13.5573 C.ar    1  LIG1        0.0000
     26 H          -1.9769    8.9361   13.4153 H       1  LIG1        0.0000
     27 C          -0.7933   10.5836   13.3994 C.ar    1  LIG1        0.0000
     28 H          -1.4731   11.1937   13.1409 H       1  LIG1        0.0000
     29 C           2.8517   14.7125   11.6496 C.ar    1  LIG1        0.0000
     30 C           3.7042   16.7200   11.0046 C.ar    1  LIG1        0.0000
     31 H           3.7517   17.6646   11.1019 H       1  LIG1        0.0000
     32 C           4.4903   16.1288   10.0471 C.ar    1  LIG1        0.0000
     33 H           5.0475   16.6573    9.4894 H       1  LIG1        0.0000
     34 C           4.4611   14.7499    9.9046 C.ar    1  LIG1        0.0000
     35 H           5.0022   14.3174    9.2558 H       1  LIG1        0.0000
     36 C           3.6290   14.0237   10.7268 C.ar    1  LIG1        0.0000
     37 H           3.5878   13.0769   10.6642 H       1  LIG1        0.0000
     38 B           0.2551   13.6294   14.0036 B       1  LIG1        0.0000
     39 N          -0.1241    4.7007    9.7175 N.pl3   2  LIG2        0.5000
     40 N           0.2926    6.8793    9.5286 N.pl3   2  LIG2        0.0000
     41 N          -0.6620    6.7117   10.5367 N.2     2  LIG2        0.5000
     42 N          -2.0467    3.5343   11.5308 N.ar    2  LIG2        0.0000
     43 N           5.3844    3.8610    4.1505 N.1     2  LIG2        0.0000
     44 C          -0.8828    5.4232   10.5946 C.2     2  LIG2        0.0000
     45 C           1.7314    5.2662    7.8741 C.ar    2  LIG2        0.0000
     46 C           1.8597    3.9407    7.4402 C.ar    2  LIG2        0.0000
     47 H           1.2944    3.2766    7.8178 H       2  LIG2        0.0000
     48 C           2.7824    3.5680    6.4802 C.ar    2  LIG2        0.0000
     49 H           2.8437    2.6612    6.2030 H       2  LIG2        0.0000
     50 C           3.6201    4.5280    5.9245 C.ar    2  LIG2        0.0000
     51 C           3.5239    5.8494    6.3366 C.ar    2  LIG2        0.0000
     52 H           4.0960    6.5081    5.9603 H       2  LIG2        0.0000
     53 C           2.5941    6.2085    7.2960 C.ar    2  LIG2        0.0000
     54 H           2.5386    7.1156    7.5706 H       2  LIG2        0.0000
     55 C           4.5993    4.1522    4.9354 C.1     2  LIG2        0.0000
     56 C           0.6476    8.2367    9.2737 C.ar    2  LIG2        0.0000
     57 C           1.0290    9.0618   10.3213 C.ar    2  LIG2        0.0000
     58 H           1.0679    8.7225   11.2085 H       2  LIG2        0.0000
     59 C           1.3530   10.3838   10.0675 C.ar    2  LIG2        0.0000
     60 H           1.6177   10.9507   10.7821 H       2  LIG2        0.0000
     61 C           1.2942   10.8807    8.7865 C.ar    2  LIG2        0.0000
     62 H           1.5286   11.7855    8.6184 H       2  LIG2        0.0000
     63 C           0.8961   10.0698    7.7480 C.ar    2  LIG2        0.0000
     64 H           0.8482   10.4196    6.8653 H       2  LIG2        0.0000
     65 C           0.5647    8.7425    7.9868 C.ar    2  LIG2        0.0000
     66 H           0.2831    8.1836    7.2712 H       2  LIG2        0.0000
     67 C          -1.9105    4.8722   11.4920 C.ar    2  LIG2        0.0000
     68 C          -3.0309    3.0461   12.3108 C.ar    2  LIG2        0.0000
     69 H          -3.1495    2.1047   12.3425 H       2  LIG2        0.0000
     70 C          -3.8739    3.8261   13.0649 C.ar    2  LIG2        0.0000
     71 H          -4.5513    3.4314   13.6013 H       2  LIG2        0.0000
     72 C          -3.7149    5.1969   13.0254 C.ar    2  LIG2        0.0000
     73 H          -4.2759    5.7634   13.5423 H       2  LIG2        0.0000
     74 C          -2.7275    5.7321   12.2223 C.ar    2  LIG2        0.0000
     75 H          -2.6071    6.6727   12.1679 H       2  LIG2        0.0000
     76 B           0.6816    5.6188    8.9775 B       2  LIG2        0.0000
     77 N          -0.8782   21.3468    9.1775 N.pl3   3  LIG3        0.5000
     78 N          -0.3577   20.4379   11.7050 N.pl3   3  LIG3        0.0000
     79 N           0.3567   19.9290   10.6442 N.2     3  LIG3        0.5000
     80 N           0.4524   20.2719    7.1177 N.ar    3  LIG3        0.0000
     81 C           0.0514   20.3711    9.4671 C.2     3  LIG3        0.0000
     82 C           0.8439   19.8543    8.3336 C.ar    3  LIG3        0.0000
     83 C           1.9354   19.0218    8.5207 C.ar    3  LIG3        0.0000
     84 H           2.1719   18.7287    9.3918 H       3  LIG3        0.0000
     85 C           2.6730   18.6246    7.4286 C.ar    3  LIG3        0.0000
     86 H           3.4277   18.0585    7.5366 H       3  LIG3        0.0000
     87 C           2.3014   19.0604    6.1840 C.ar    3  LIG3        0.0000
     88 H           2.8012   18.8149    5.4137 H       3  LIG3        0.0000
     89 C           1.1942   19.8596    6.0733 C.ar    3  LIG3        0.0000
     90 H           0.9328   20.1396    5.2051 H       3  LIG3        0.0000
     91 C          -0.0626   19.9225   12.9662 C.ar    3  LIG3        0.0000
     92 C          -0.5975   20.5384   14.0914 C.ar    3  LIG3        0.0000
     93 H          -1.1230   21.3252   13.9982 H       3  LIG3        0.0000
     94 C          -0.3659   20.0070   15.3499 C.ar    3  LIG3        0.0000
     95 H          -0.7397   20.4277   16.1142 H       3  LIG3        0.0000
     96 C           0.4046   18.8700   15.5053 C.ar    3  LIG3        0.0000
     97 H           0.5521   18.5033   16.3705 H       3  LIG3        0.0000
     98 C           0.9564   18.2736   14.3946 C.ar    3  LIG3        0.0000
     99 H           1.5007   17.5019   14.4994 H       3  LIG3        0.0000
    100 C           0.7296   18.7826   13.1182 C.ar    3  LIG3        0.0000
    101 H           1.1098   18.3583   12.3584 H       3  LIG3        0.0000
    102 H           1.0269   15.4834   13.3609 H       1  LIG1        0.0000
    103 H          -0.2382    3.8586    9.6617 H       2  LIG2        0.0000
    104 H          -1.6087   21.4056    9.7706 H       3  LIG3        0.0000
    105 H          -1.1135   21.2939    8.2193 H       3  LIG3        0.0000
    106 H          -0.7077   21.3252   11.6349 H       3  LIG3        0.0000
@<TRIPOS>BOND
     1    43    55    3
     2    55    50    1
     3    90    89    1
     4    88    87    1
     5    50    51   ar
     6    50    48   ar
     7    52    51    1
     8    89    87   ar
     9    89    80   ar
    10    87    85   ar
    11    49    48    1
    12    51    53   ar
    13    48    46   ar
    14    64    63    1
    15    80    82   ar
    16    66    65    1
    17    53    54    1
    18    53    45   ar
    19    85    86    1
    20    85    83   ar
    21    46    47    1
    22    46    45   ar
    23    63    65   ar
    24    63    61   ar
    25    45    76    1
    26    65    56   ar
    27   105    77    1
    28    82    83   ar
    29    82    81    1
    30    83    84    1
    31    62    61    1
    32    61    59   ar
    33    76    40    1
    34    76    39    1
    35    77    81    1
    36    77   104    1
    37    35    34    1
    38    56    40    1
    39    56    57   ar
    40    81    79    2
    41    33    32    1
    42    40    41    1
    43   103    39    1
    44    39    44    1
    45    34    32   ar
    46    34    36   ar
    47    32    30   ar
    48    59    57   ar
    49    59    60    1
    50    57    58    1
    51    41    44    2
    52    44    67    1
    53    79    78    1
    54    37    36    1
    55    36    29   ar
    56    30    31    1
    57    30     4   ar
    58    67    42   ar
    59    67    74   ar
    60    42    68   ar
    61   106    78    1
    62    29     4   ar
    63    29     6    1
    64    78    91    1
    65    75    74    1
    66    74    72   ar
    67    68    69    1
    68    68    70   ar
    69   101   100    1
    70     6     3    2
    71     6     1    1
    72     3     2    1
    73    91   100   ar
    74    91    92   ar
    75    72    70   ar
    76    72    73    1
    77    70    71    1
    78   100    98   ar
    79    28    27    1
    80     1   102    1
    81     1    38    1
    82    27    25   ar
    83    27    18   ar
    84    26    25    1
    85     2    18    1
    86     2    38    1
    87    25    23   ar
    88    18    19   ar
    89    23    24    1
    90    23    21   ar
    91    19    20    1
    92    19    21   ar
    93    93    92    1
    94    38     7    1
    95    92    94   ar
    96    21    22    1
    97    98    99    1
    98    98    96   ar
    99     9     8    1
   100     7     8   ar
   101     7    15   ar
   102    94    96   ar
   103    94    95    1
   104     8    10   ar
   105    96    97    1
   106    16    15    1
   107    15    13   ar
   108    10    11    1
   109    10    12   ar
   110    13    12   ar
   111    13    14    1
   112    12    17    1
   113    17     5    3
