@<TRIPOS>MOLECULE
C14 H16 O5
 35 38 0 0 0
SMALL
GASTEIGER

@<TRIPOS>ATOM
      1 C           1.1259    4.2584   13.0868 C.3     1  LIG1       -0.0617
      2 C           2.3483    4.7198   12.3016 C.3     1  LIG1       -0.0312
      3 C           3.4300    5.4030   13.1493 C.3     1  LIG1       -0.0458
      4 C           4.3138    6.1548   12.1488 C.3     1  LIG1       -0.0078
      5 C           3.4639    6.3301   10.8679 C.3     1  LIG1        0.1471
      6 C           4.0946    5.7216    9.6672 C.2     1  LIG1        0.0210
      7 C           5.4169    6.0963    9.0884 C.3     1  LIG1        0.1183
      8 C           4.5143    4.3621    7.9082 C.2     1  LIG1        0.3356
      9 C           3.5643    4.7083    8.9731 C.2     1  LIG1        0.0428
     10 C           2.2235    4.1176    9.2126 C.3     1  LIG1       -0.0200
     11 C           1.3571    5.1413    9.9491 C.3     1  LIG1       -0.0360
     12 C           2.0589    5.7347   11.1773 C.3     1  LIG1        0.0537
     13 C           1.3236    7.0051   11.6368 C.3     1  LIG1        0.1613
     14 C           1.9730    8.0967   10.8021 C.2     1  LIG1        0.3376
     15 O           3.2505    7.7465   10.5300 O.3     1  LIG1       -0.4510
     16 O           5.5821    5.1879    7.9750 O.3     1  LIG1       -0.4568
     17 O           4.4253    3.5008    7.0561 O.2     1  LIG1       -0.2453
     18 O          -0.0735    6.9582   11.4765 O.3     1  LIG1       -0.3799
     19 O           1.5107    9.1418   10.4365 O.2     1  LIG1       -0.2479
     20 H          -0.3526    7.3302   12.1820 H       1  LIG1        0.2105
     21 H           0.6734    5.0354   13.4909 H       1  LIG1        0.0233
     22 H           1.4025    3.6512   13.8038 H       1  LIG1        0.0233
     23 H           0.4858    3.8118   12.4963 H       1  LIG1        0.0233
     24 H           2.7779    3.9251   11.8565 H       1  LIG1        0.0306
     25 H           3.9341    4.8055   13.7088 H       1  LIG1        0.0269
     26 H           2.9980    6.0499   13.7842 H       1  LIG1        0.0269
     27 H           5.0863    5.6305   11.9180 H       1  LIG1        0.0307
     28 H           4.5586    7.0344   12.4921 H       1  LIG1        0.0307
     29 H           5.4087    7.0194    8.7513 H       1  LIG1        0.0747
     30 H           6.1618    5.9829    9.7277 H       1  LIG1        0.0747
     31 H           1.8062    3.9135    8.3602 H       1  LIG1        0.0316
     32 H           2.2874    3.2815    9.7417 H       1  LIG1        0.0316
     33 H           1.1724    5.8651    9.3199 H       1  LIG1        0.0276
     34 H           0.5021    4.7096   10.2124 H       1  LIG1        0.0276
     35 H           1.5808    7.1707   12.6178 H       1  LIG1        0.0717
@<TRIPOS>BOND
     1    17     8    2
     2     8    16    1
     3     8     9    1
     4    16     7    1
     5    31    10    1
     6    29     7    1
     7     9    10    1
     8     9     6    2
     9     7     6    1
    10     7    30    1
    11    10    32    1
    12    10    11    1
    13    33    11    1
    14     6     5    1
    15    11    34    1
    16    11    12    1
    17    19    14    2
    18    15    14    1
    19    15     5    1
    20    14    13    1
    21     5    12    1
    22     5     4    1
    23    12    13    1
    24    12     2    1
    25    18    13    1
    26    18    20    1
    27    13    35    1
    28    24     2    1
    29    27     4    1
    30     4    28    1
    31     4     3    1
    32     2     1    1
    33     2     3    1
    34    23     1    1
    35     1    21    1
    36     1    22    1
    37     3    25    1
    38     3    26    1
