@<TRIPOS>MOLECULE
4037767.cif
 50 53 0 0 0
SMALL
GASTEIGER

@<TRIPOS>ATOM
      1 S          -4.9091   -0.3292   -3.2643 S.3     1  LIG1       -0.1239
      2 O          -2.0039    3.1765   -2.1872 O.3     1  LIG1       -0.3200
      3 O          -2.5030    2.9272   -0.0031 O.3     1  LIG1       -0.4295
      4 O          -0.4924    2.2186    0.6990 O.2     1  LIG1       -0.2475
      5 O          -5.2587    1.4121   -0.1243 O.3     1  LIG1       -0.4674
      6 O          -3.7019   -0.1521    0.1661 O.2     1  LIG1       -0.2499
      7 C          -7.4571    0.5242   -3.8441 C.ar    1  LIG1       -0.0483
      8 H          -7.0586    1.0630   -4.4890 H       1  LIG1        0.0629
      9 C          -8.8225    0.5411   -3.6903 C.ar    1  LIG1       -0.0607
     10 H          -9.3417    1.1043   -4.2181 H       1  LIG1        0.0618
     11 C          -9.4196   -0.2617   -2.7689 C.ar    1  LIG1       -0.0617
     12 H         -10.3442   -0.2464   -2.6656 H       1  LIG1        0.0618
     13 C          -8.6594   -1.0890   -1.9957 C.ar    1  LIG1       -0.0607
     14 H          -9.0676   -1.6492   -1.3767 H       1  LIG1        0.0618
     15 C          -7.2781   -1.0990   -2.1283 C.ar    1  LIG1       -0.0483
     16 H          -6.7637   -1.6584   -1.5928 H       1  LIG1        0.0629
     17 C          -6.6699   -0.2839   -3.0484 C.ar    1  LIG1        0.0079
     18 C          -4.4458    1.3791   -2.8269 C.3     1  LIG1        0.0209
     19 H          -4.0382    1.8038   -3.5975 H       1  LIG1        0.0393
     20 H          -5.2475    1.8765   -2.6033 H       1  LIG1        0.0393
     21 C          -3.4696    1.4441   -1.6466 C.3     1  LIG1        0.1513
     22 C          -2.0350    0.8457   -1.9038 C.3     1  LIG1        0.0462
     23 H          -1.8399    0.2059   -1.1882 H       1  LIG1        0.0395
     24 C          -1.7774    0.1645   -3.2260 C.ar    1  LIG1       -0.0397
     25 C          -1.4202   -1.1724   -3.2265 C.ar    1  LIG1       -0.0582
     26 H          -1.3747   -1.6377   -2.4221 H       1  LIG1        0.0620
     27 C          -1.1282   -1.8222   -4.4143 C.ar    1  LIG1       -0.0615
     28 H          -0.8850   -2.7191   -4.4030 H       1  LIG1        0.0618
     29 C          -1.1971   -1.1518   -5.6064 C.ar    1  LIG1       -0.0617
     30 H          -0.9993   -1.5918   -6.4004 H       1  LIG1        0.0618
     31 C          -1.5585    0.1699   -5.6248 C.ar    1  LIG1       -0.0615
     32 H          -1.6232    0.6199   -6.4370 H       1  LIG1        0.0618
     33 C          -1.8281    0.8395   -4.4464 C.ar    1  LIG1       -0.0582
     34 H          -2.0452    1.7441   -4.4671 H       1  LIG1        0.0620
     35 C          -1.1560    2.1145   -1.6748 C.3     1  LIG1        0.1749
     36 C           0.2452    2.1589   -2.2125 C.3     1  LIG1       -0.0245
     37 H           0.2266    2.0525   -3.1654 H       1  LIG1        0.0263
     38 H           0.7597    1.4495   -1.8216 H       1  LIG1        0.0263
     39 H           0.6466    3.0038   -1.9937 H       1  LIG1        0.0263
     40 C          -3.0962    2.9388   -1.3447 C.3     1  LIG1        0.2310
     41 C          -4.1164    4.0285   -1.4249 C.3     1  LIG1        0.0024
     42 H          -3.7222    4.8581   -1.1461 H       1  LIG1        0.0293
     43 H          -4.8568    3.8173   -0.8495 H       1  LIG1        0.0293
     44 H          -4.4280    4.1097   -2.3287 H       1  LIG1        0.0293
     45 C          -1.2672    2.4115   -0.1922 C.2     1  LIG1        0.3423
     46 C          -4.1221    0.7883   -0.4310 C.2     1  LIG1        0.3210
     47 C          -5.9785    0.9138    1.0218 C.3     1  LIG1        0.0817
     48 H          -6.4097    0.0872    0.7946 H       1  LIG1        0.0661
     49 H          -6.6390    1.5566    1.2889 H       1  LIG1        0.0661
     50 H          -5.3659    0.7653    1.7447 H       1  LIG1        0.0661
@<TRIPOS>BOND
     1    32    31    1
     2    30    29    1
     3    31    29   ar
     4    31    33   ar
     5    29    27   ar
     6     8     7    1
     7    34    33    1
     8    33    24   ar
     9    27    28    1
    10    27    25   ar
    11    10     9    1
    12     7     9   ar
    13     7    17   ar
    14     9    11   ar
    15    19    18    1
    16     1    17    1
    17     1    18    1
    18    25    24   ar
    19    25    26    1
    20    24    22    1
    21    37    36    1
    22    17    15   ar
    23    18    20    1
    24    18    21    1
    25    11    12    1
    26    11    13   ar
    27    44    41    1
    28    36    39    1
    29    36    38    1
    30    36    35    1
    31     2    35    1
    32     2    40    1
    33    15    13   ar
    34    15    16    1
    35    13    14    1
    36    22    35    1
    37    22    21    1
    38    22    23    1
    39    35    45    1
    40    21    40    1
    41    21    46    1
    42    41    40    1
    43    41    42    1
    44    41    43    1
    45    40     3    1
    46    46     5    1
    47    46     6    2
    48    45     3    1
    49    45     4    2
    50     5    47    1
    51    48    47    1
    52    47    49    1
    53    47    50    1
