@<TRIPOS>MOLECULE
3 in manuscript
 38 40 0 0 0
SMALL
GASTEIGER

@<TRIPOS>ATOM
      1 BR          7.2224    6.1846    6.7070 Br      1  LIG1        0.0000
      2 B           7.3354    3.2306    7.2099 B       1  LIG1        0.0000
      3 O           8.6361    2.9151    7.0999 O.3     1  LIG1        0.0000
      4 O           6.9018    3.3196    8.4793 O.3     1  LIG1        0.0000
      5 C           9.1896    2.9054    8.4586 C.3     1  LIG1        0.0000
      6 C           7.9996    2.9137    9.3486 C.3     1  LIG1        0.0000
      7 C           9.9593    4.2899    8.6498 C.3     1  LIG1        0.0000
      8 H           9.3166    5.0293    8.6117 H       1  LIG1        0.0000
      9 H          10.4109    4.2952    9.5198 H       1  LIG1        0.0000
     10 H          10.6225    4.3969    7.9367 H       1  LIG1        0.0000
     11 C          10.2532    1.9031    8.5364 C.3     1  LIG1        0.0000
     12 H          10.6261    1.8932    9.4422 H       1  LIG1        0.0000
     13 H           9.8852    1.0204    8.3240 H       1  LIG1        0.0000
     14 H          10.9591    2.1264    7.8944 H       1  LIG1        0.0000
     15 C           7.6517    1.4596    9.7666 C.3     1  LIG1        0.0000
     16 H           7.6754    0.8782    8.9783 H       1  LIG1        0.0000
     17 H           8.3060    1.1430   10.4251 H       1  LIG1        0.0000
     18 H           6.7553    1.4380   10.1620 H       1  LIG1        0.0000
     19 C           7.9350    3.6755   10.5805 C.3     1  LIG1        0.0000
     20 H           8.6715    3.4063   11.1689 H       1  LIG1        0.0000
     21 H           8.0114    4.6307   10.3778 H       1  LIG1        0.0000
     22 H           7.0804    3.5023   11.0267 H       1  LIG1        0.0000
     23 C           5.9331    5.6077    5.4264 C.ar    1  LIG1        0.0000
     24 C           5.3019    6.5767    4.7192 C.ar    1  LIG1        0.0000
     25 H           5.5039    7.4919    4.8700 H       1  LIG1        0.0000
     26 C           4.3517    6.2111    3.7699 C.ar    1  LIG1        0.0000
     27 H           3.9115    6.8862    3.2681 H       1  LIG1        0.0000
     28 C           4.0433    4.9030    3.5482 C.ar    1  LIG1        0.0000
     29 H           3.3802    4.6728    2.9080 H       1  LIG1        0.0000
     30 C           4.7115    3.8882    4.2741 C.ar    1  LIG1        0.0000
     31 C           4.4110    2.5356    4.0136 C.ar    1  LIG1        0.0000
     32 H           3.7554    2.3177    3.3614 H       1  LIG1        0.0000
     33 C           5.0502    1.5416    4.6836 C.ar    1  LIG1        0.0000
     34 H           4.8492    0.6321    4.4950 H       1  LIG1        0.0000
     35 C           6.0069    1.8642    5.6566 C.ar    1  LIG1        0.0000
     36 H           6.4475    1.1582    6.1160 H       1  LIG1        0.0000
     37 C           6.3364    3.1681    5.9730 C.ar    1  LIG1        0.0000
     38 C           5.6946    4.2190    5.2505 C.ar    1  LIG1        0.0000
@<TRIPOS>BOND
     1    29    28    1
     2    27    26    1
     3    32    31    1
     4    28    26   ar
     5    28    30   ar
     6    26    24   ar
     7    31    30   ar
     8    31    33   ar
     9    30    38   ar
    10    34    33    1
    11    33    35   ar
    12    24    25    1
    13    24    23   ar
    14    38    23   ar
    15    38    37   ar
    16    23     1    1
    17    35    37   ar
    18    35    36    1
    19    37     2    1
    20     3     2    1
    21     3     5    1
    22     2     4    1
    23    14    11    1
    24    10     7    1
    25    13    11    1
    26     5    11    1
    27     5     7    1
    28     5     6    1
    29     4     6    1
    30    11    12    1
    31     8     7    1
    32     7     9    1
    33    16    15    1
    34     6    15    1
    35     6    19    1
    36    15    18    1
    37    15    17    1
    38    21    19    1
    39    19    22    1
    40    19    20    1
