@<TRIPOS>MOLECULE
4037699.cif
 35 37 0 0 0
SMALL
GASTEIGER

@<TRIPOS>ATOM
      1 S          -0.3120    3.4284    2.7464 S.O2    1  LIG1        0.0107
      2 F          -1.6773    8.9084    1.3373 F       1  LIG1       -0.2055
      3 F           4.2123    3.8838    3.9875 F       1  LIG1       -0.1668
      4 F           3.6391    1.8232    3.6799 F       1  LIG1       -0.1668
      5 F           4.7505    2.8802    2.1569 F       1  LIG1       -0.1668
      6 O           2.7173    4.5768    1.6002 O.3     1  LIG1       -0.4767
      7 O          -0.2001    2.6135    1.5745 O.2     1  LIG1       -0.1685
      8 O          -1.1331    3.0101    3.8493 O.2     1  LIG1       -0.1685
      9 O           0.9175    5.0727    5.2831 O.2     1  LIG1       -0.2897
     10 C          -1.3946    7.6230    1.6509 C.ar    1  LIG1        0.1235
     11 C          -1.7712    7.1595    2.8917 C.ar    1  LIG1       -0.0247
     12 H          -2.2224    7.7239    3.5090 H       1  LIG1        0.0647
     13 C          -1.4725    5.8428    3.2143 C.ar    1  LIG1       -0.0341
     14 H          -1.7157    5.4857    4.0593 H       1  LIG1        0.0637
     15 C          -0.8073    5.0534    2.2744 C.ar    1  LIG1        0.0893
     16 C           1.3725    3.6161    3.4512 C.3     1  LIG1        0.1892
     17 H           1.4899    2.8952    4.1346 H       1  LIG1        0.0664
     18 C           2.4686    3.4311    2.4088 C.3     1  LIG1        0.2238
     19 H           2.1857    2.6888    1.8014 H       1  LIG1        0.0849
     20 C           2.6777    5.8168    2.2023 C.ar    1  LIG1        0.1320
     21 C           3.2448    6.8595    1.4747 C.ar    1  LIG1       -0.0192
     22 H           3.6618    6.6924    0.6379 H       1  LIG1        0.0654
     23 C           3.1912    8.1399    1.9848 C.ar    1  LIG1       -0.0583
     24 H           3.5781    8.8544    1.4922 H       1  LIG1        0.0619
     25 C           1.4367    4.9514    4.1867 C.2     1  LIG1        0.1949
     26 C           2.0718    6.0514    3.4420 C.ar    1  LIG1        0.0611
     27 C           3.7837    3.0070    3.0762 C.3     1  LIG1        0.4287
     28 C           2.5822    8.4055    3.2091 C.ar    1  LIG1       -0.0609
     29 H           2.5483    9.2924    3.5461 H       1  LIG1        0.0618
     30 C           2.0255    7.3619    3.9305 C.ar    1  LIG1       -0.0477
     31 H           1.6082    7.5373    4.7653 H       1  LIG1        0.0626
     32 C          -0.4546    5.5351    1.0213 C.ar    1  LIG1       -0.0341
     33 H          -0.0136    4.9740    0.3947 H       1  LIG1        0.0637
     34 C          -0.7588    6.8529    0.7008 C.ar    1  LIG1       -0.0247
     35 H          -0.5341    7.2131   -0.1494 H       1  LIG1        0.0647
@<TRIPOS>BOND
     1    35    34    1
     2    33    32    1
     3    22    21    1
     4    34    32   ar
     5    34    10   ar
     6    32    15   ar
     7     2    10    1
     8    21    23   ar
     9    21    20   ar
    10    24    23    1
    11     7     1    2
    12     6    20    1
    13     6    18    1
    14    10    11   ar
    15    19    18    1
    16    23    28   ar
    17     5    27    1
    18    20    26   ar
    19    15     1    1
    20    15    13   ar
    21    18    27    1
    22    18    16    1
    23     1    16    1
    24     1     8    2
    25    11    13   ar
    26    11    12    1
    27    27     4    1
    28    27     3    1
    29    28    29    1
    30    28    30   ar
    31    13    14    1
    32    26    30   ar
    33    26    25    1
    34    16    17    1
    35    16    25    1
    36    30    31    1
    37    25     9    2
