@<TRIPOS>MOLECULE
4037220.cif
 34 36 0 0 0
SMALL
GASTEIGER

@<TRIPOS>ATOM
      1 C          -1.4275    3.8745    3.8419 C.ar    1  LIG1        0.0181
      2 C          -1.3967    3.2063    5.0738 C.ar    1  LIG1       -0.0443
      3 H          -2.1817    2.8649    5.4359 H       1  LIG1        0.0630
      4 C          -0.2234    3.0570    5.7379 C.ar    1  LIG1       -0.0182
      5 H          -0.2072    2.6858    6.5905 H       1  LIG1        0.0655
      6 C           0.9533    3.4657    5.1237 C.ar    1  LIG1        0.1317
      7 C           0.9861    4.0597    3.8873 C.ar    1  LIG1       -0.0182
      8 H           1.7978    4.3077    3.5081 H       1  LIG1        0.0655
      9 C          -0.1816    4.2824    3.2220 C.ar    1  LIG1       -0.0443
     10 H          -0.1794    4.6888    2.3853 H       1  LIG1        0.0630
     11 C           2.5930    4.1278    6.6848 C.2     1  LIG1        0.3143
     12 C           3.9529    3.7030    7.2604 C.3     1  LIG1        0.0683
     13 H           4.6658    4.0046    6.6757 H       1  LIG1        0.0398
     14 H           3.9969    2.7363    7.3194 H       1  LIG1        0.0398
     15 C           4.1328    4.3230    8.6693 C.3     1  LIG1        0.0908
     16 H           4.0614    5.2943    8.5626 H       1  LIG1        0.0552
     17 C           5.5062    4.0467    9.2449 C.ar    1  LIG1        0.0181
     18 C           6.6367    4.5006    8.6057 C.ar    1  LIG1       -0.0534
     19 H           6.5539    4.9889    7.8190 H       1  LIG1        0.0622
     20 C           7.9233    4.2342    9.1303 C.ar    1  LIG1       -0.0612
     21 H           8.6752    4.4990    8.6534 H       1  LIG1        0.0618
     22 C           8.0732    3.6081   10.2985 C.ar    1  LIG1       -0.0582
     23 H           8.9277    3.4818   10.6448 H       1  LIG1        0.0619
     24 C           6.9563    3.1343   11.0149 C.ar    1  LIG1       -0.0167
     25 H           7.0453    2.6965   11.8301 H       1  LIG1        0.0655
     26 C           5.7223    3.3586   10.4370 C.ar    1  LIG1        0.1627
     27 N           3.0363    3.9089    9.5935 N.3     1  LIG1       -0.0484
     28 O           2.1924    3.1779    5.7811 O.3     1  LIG1       -0.4258
     29 O           2.0171    5.1060    6.8891 O.2     1  LIG1       -0.2503
     30 O           4.6439    2.8978   11.2544 O.3     1  LIG1       -0.3322
     31 O           3.5899    1.5032    9.5583 O.2     1  LIG1       -0.1174
     32 O           2.2763    2.4286   11.4236 O.2     1  LIG1       -0.1174
     33 S           3.2929    2.5740   10.4495 S.O2    1  LIG1        0.2095
     34 BR         -3.0795    4.2360    2.9741 Br      1  LIG1       -0.0503
@<TRIPOS>BOND
     1    10     9    1
     2    34     1    1
     3     9     1   ar
     4     9     7   ar
     5     8     7    1
     6     1     2   ar
     7     7     6   ar
     8     2     3    1
     9     2     4   ar
    10     6     4   ar
    11     6    28    1
    12     4     5    1
    13    28    11    1
    14    13    12    1
    15    11    29    2
    16    11    12    1
    17    12    14    1
    18    12    15    1
    19    19    18    1
    20    16    15    1
    21    18    20   ar
    22    18    17   ar
    23    21    20    1
    24    15    17    1
    25    15    27    1
    26    20    22   ar
    27    17    26   ar
    28    31    33    2
    29    27    33    1
    30    22    23    1
    31    22    24   ar
    32    26    24   ar
    33    26    30    1
    34    33    30    1
    35    33    32    2
    36    24    25    1
