@<TRIPOS>MOLECULE
C31 H19 N
 51 57 0 0 0
SMALL
GASTEIGER

@<TRIPOS>ATOM
      1 C           5.7144   -1.5249    5.5938 C.ar    1  LIG1       -0.0528
      2 H           6.6292   -1.7550    5.7097 H       1  LIG1        0.0624
      3 C           4.7467   -2.2950    6.1749 C.ar    1  LIG1       -0.0611
      4 H           4.9938   -3.0583    6.6840 H       1  LIG1        0.0618
      5 C           3.3879   -1.9668    6.0242 C.ar    1  LIG1       -0.0612
      6 H           2.7222   -2.5111    6.4284 H       1  LIG1        0.0618
      7 C           3.0193   -0.8660    5.2959 C.ar    1  LIG1       -0.0537
      8 H           2.0981   -0.6511    5.2069 H       1  LIG1        0.0624
      9 C           3.9907   -0.0419    4.6724 C.ar    1  LIG1       -0.0128
     10 C           5.3725   -0.3879    4.8211 C.ar    1  LIG1        0.0004
     11 C           6.3795    0.4469    4.2252 C.ar    1  LIG1        0.0675
     12 C           6.0113    1.5366    3.4634 C.ar    1  LIG1        0.0053
     13 C           4.6335    1.8016    3.2783 C.ar    1  LIG1       -0.0152
     14 C           3.6421    1.1151    3.9095 C.ar    1  LIG1       -0.0300
     15 C           2.2611    1.7265    3.8229 C.3     1  LIG1       -0.0012
     16 H           1.7022    1.3955    4.5702 H       1  LIG1        0.0362
     17 H           1.8301    1.4598    2.9724 H       1  LIG1        0.0362
     18 C           2.3647    3.2372    3.8916 C.ar    1  LIG1       -0.0384
     19 C           1.4073    3.9705    4.5891 C.ar    1  LIG1       -0.0580
     20 H           0.6910    3.5179    5.0187 H       1  LIG1        0.0620
     21 C           1.4881    5.3549    4.6629 C.ar    1  LIG1       -0.0615
     22 H           0.8178    5.8453    5.1249 H       1  LIG1        0.0618
     23 C           2.5420    6.0189    4.0649 C.ar    1  LIG1       -0.0614
     24 H           2.6050    6.9650    4.1264 H       1  LIG1        0.0618
     25 C           3.5097    5.3011    3.3740 C.ar    1  LIG1       -0.0568
     26 H           4.2361    5.7596    2.9688 H       1  LIG1        0.0621
     27 C           3.4247    3.9145    3.2689 C.ar    1  LIG1       -0.0247
     28 C           4.4048    3.0651    2.4695 C.3     1  LIG1        0.0721
     29 C           5.8408    3.5650    2.3131 C.ar    1  LIG1       -0.0204
     30 C           6.7605    2.6416    2.8471 C.ar    1  LIG1       -0.0117
     31 C           8.1310    2.8806    2.7667 C.ar    1  LIG1       -0.0537
     32 H           8.7533    2.2550    3.1195 H       1  LIG1        0.0624
     33 C           8.5697    4.0508    2.1604 C.ar    1  LIG1       -0.0612
     34 H           9.5007    4.2332    2.1102 H       1  LIG1        0.0618
     35 C           7.6641    4.9565    1.6268 C.ar    1  LIG1       -0.0614
     36 H           7.9816    5.7545    1.2215 H       1  LIG1        0.0618
     37 C           6.2948    4.7084    1.6790 C.ar    1  LIG1       -0.0565
     38 H           5.6804    5.3162    1.2842 H       1  LIG1        0.0621
     39 C           7.7651    0.1429    4.4571 C.1     1  LIG1        0.1004
     40 C           3.8301    2.7482    1.0630 C.ar    1  LIG1       -0.0282
     41 C           2.7090    3.3959    0.5614 C.ar    1  LIG1       -0.0571
     42 H           2.2508    4.0281    1.1021 H       1  LIG1        0.0621
     43 C           2.2474    3.1292   -0.7270 C.ar    1  LIG1       -0.0615
     44 H           1.4789    3.5800   -1.0563 H       1  LIG1        0.0618
     45 C           2.8992    2.2166   -1.5237 C.ar    1  LIG1       -0.0617
     46 H           2.5847    2.0375   -2.4021 H       1  LIG1        0.0618
     47 C           4.0164    1.5616   -1.0370 C.ar    1  LIG1       -0.0615
     48 H           4.4683    0.9282   -1.5821 H       1  LIG1        0.0618
     49 C           4.4798    1.8269    0.2460 C.ar    1  LIG1       -0.0571
     50 H           5.2497    1.3741    0.5692 H       1  LIG1        0.0621
     51 N           8.8702   -0.1160    4.6367 N.1     1  LIG1       -0.1908
@<TRIPOS>BOND
     1    46    45    1
     2    48    47    1
     3    45    47   ar
     4    45    43   ar
     5    44    43    1
     6    47    49   ar
     7    43    41   ar
     8    49    50    1
     9    49    40   ar
    10    41    40   ar
    11    41    42    1
    12    40    28    1
    13    36    35    1
    14    38    37    1
    15    35    37   ar
    16    35    33   ar
    17    37    29   ar
    18    34    33    1
    19    33    31   ar
    20    29    28    1
    21    29    30   ar
    22    28    27    1
    23    28    13    1
    24    31    30   ar
    25    31    32    1
    26    30    12    1
    27    26    25    1
    28    17    15    1
    29    27    25   ar
    30    27    18   ar
    31    13    12   ar
    32    13    14   ar
    33    25    23   ar
    34    12    11   ar
    35    15    18    1
    36    15    14    1
    37    15    16    1
    38    18    19   ar
    39    14     9   ar
    40    23    24    1
    41    23    21   ar
    42    11    39    1
    43    11    10   ar
    44    39    51    3
    45    19    21   ar
    46    19    20    1
    47    21    22    1
    48     9    10   ar
    49     9     7   ar
    50    10     1   ar
    51     8     7    1
    52     7     5   ar
    53     1     2    1
    54     1     3   ar
    55     5     3   ar
    56     5     6    1
    57     3     4    1
