@<TRIPOS>MOLECULE
C14 H11 N O3
 58 60 0 0 0
SMALL
GASTEIGER

@<TRIPOS>ATOM
      1 O           5.5167   16.0280    5.7844 O.3     1  LIG1       -0.4614
      2 O           8.5821   13.6655    8.0387 O.2     1  LIG1       -0.4621
      3 O           3.5942    8.0972    4.4919 O.2     2  LIG2       -0.4621
      4 O           0.3486    5.7130    2.5658 O.3     2  LIG2       -0.4614
      5 O           4.9999   13.8650    5.6536 O.2     1  LIG1       -0.2448
      6 O          -0.1847    7.8603    2.3830 O.2     2  LIG2       -0.2448
      7 N           6.2988    6.6759    6.8936 N.1     1  LIG1       -0.1909
      8 C           1.8456    7.2149    3.4478 C.ar    2  LIG2        0.1045
      9 C           6.9399   14.5565    6.8347 C.ar    1  LIG1        0.1045
     10 C           5.7263   14.7436    6.0337 C.2     1  LIG1        0.3429
     11 C           2.1943    9.8250    3.6832 C.ar    2  LIG2        0.0181
     12 C           7.4791   13.3791    7.2847 C.ar    1  LIG1        0.1487
     13 C           2.4441    8.3877    3.8127 C.ar    2  LIG2        0.1487
     14 C           7.7647   15.5995    7.3415 C.ar    1  LIG1       -0.0092
     15 H           7.6502   16.5122    7.2023 H       1  LIG1        0.0657
     16 C           6.7135    9.2233    7.0431 C.ar    1  LIG1        0.0518
     17 N           1.5552   15.1344    3.2200 N.1     2  LIG2       -0.1909
     18 C           7.1779   11.9494    7.1823 C.ar    1  LIG1        0.0181
     19 C           0.5784    7.0096    2.7499 C.2     2  LIG2        0.3429
     20 C           1.8500   12.5791    3.4450 C.ar    2  LIG2        0.0518
     21 C           1.2215   11.7180    2.5713 C.ar    2  LIG2       -0.0437
     22 H           0.6762   12.0587    1.9005 H       2  LIG2        0.0631
     23 C           6.4826    7.7983    6.9586 C.1     1  LIG1        0.0992
     24 C           1.3944   10.3573    2.6828 C.ar    2  LIG2       -0.0498
     25 H           0.9706    9.7884    2.0812 H       2  LIG2        0.0625
     26 C           2.8134   10.7055    4.5625 C.ar    2  LIG2       -0.0498
     27 H           3.3501   10.3654    5.2423 H       2  LIG2        0.0625
     28 C           2.6842    6.1650    3.9276 C.ar    2  LIG2       -0.0092
     29 H           2.5405    5.2508    3.8272 H       2  LIG2        0.0657
     30 C           7.2919    9.7621    8.1702 C.ar    1  LIG1       -0.0437
     31 H           7.5312    9.2115    8.8806 H       1  LIG1        0.0631
     32 C           6.6039   11.3907    6.0565 C.ar    1  LIG1       -0.0498
     33 H           6.3724   11.9369    5.3400 H       1  LIG1        0.0625
     34 C           7.5180   11.1184    8.2422 C.ar    1  LIG1       -0.0498
     35 H           7.9009   11.4817    9.0072 H       1  LIG1        0.0625
     36 C           1.6799   13.9996    3.3197 C.1     2  LIG2        0.0992
     37 C           6.3717   10.0392    5.9804 C.ar    1  LIG1       -0.0437
     38 H           5.9860    9.6754    5.2167 H       1  LIG1        0.0631
     39 C           2.6515   12.0654    4.4503 C.ar    2  LIG2       -0.0437
     40 H           3.0767   12.6386    5.0471 H       2  LIG2        0.0631
     41 C           8.7282   15.0239    8.0498 C.ar    1  LIG1        0.0934
     42 H           9.4079   15.4800    8.4908 H       1  LIG1        0.1030
     43 C           4.3510   16.3345    4.9779 C.3     1  LIG1        0.0900
     44 H           3.5540   15.9642    5.3877 H       1  LIG1        0.0695
     45 H           4.4474   15.9526    4.0917 H       1  LIG1        0.0695
     46 C           3.7101    6.7397    4.5438 C.ar    2  LIG2        0.0934
     47 H           4.4085    6.2801    4.9529 H       2  LIG2        0.1030
     48 C           4.2445   17.8149    4.8899 C.3     1  LIG1       -0.0306
     49 H           3.4834   18.0489    4.3527 H       1  LIG1        0.0262
     50 H           5.0411   18.1707    4.4898 H       1  LIG1        0.0262
     51 H           4.1375   18.1823    5.7713 H       1  LIG1        0.0262
     52 C          -0.8667    5.3709    1.8541 C.3     2  LIG2        0.0900
     53 H          -0.8864    5.8133    0.9921 H       2  LIG2        0.0695
     54 H          -1.6431    5.6510    2.3629 H       2  LIG2        0.0695
     55 C          -0.8775    3.9093    1.6748 C.3     2  LIG2       -0.0306
     56 H          -0.0922    3.6388    1.1929 H       2  LIG2        0.0262
     57 H          -1.6591    3.6533    1.1797 H       2  LIG2        0.0262
     58 H          -0.8883    3.4822    2.5339 H       2  LIG2        0.0262
@<TRIPOS>BOND
     1    53    52    1
     2    57    55    1
     3    56    55    1
     4    55    52    1
     5    55    58    1
     6    52    54    1
     7    52     4    1
     8    22    21    1
     9    25    24    1
    10     6    19    2
    11     4    19    1
    12    21    24   ar
    13    21    20   ar
    14    24    11   ar
    15    19     8    1
    16    17    36    3
    17    36    20    1
    18    20    39   ar
    19     8    13   ar
    20     8    28   ar
    21    11    13    1
    22    11    26   ar
    23    13     3   ar
    24    29    28    1
    25    28    46   ar
    26    45    43    1
    27    49    48    1
    28    39    26   ar
    29    39    40    1
    30    50    48    1
    31     3    46   ar
    32    46    47    1
    33    26    27    1
    34    48    43    1
    35    48    51    1
    36    43    44    1
    37    43     1    1
    38    38    37    1
    39    33    32    1
    40     5    10    2
    41     1    10    1
    42    37    32   ar
    43    37    16   ar
    44    10     9    1
    45    32    18   ar
    46     9    12   ar
    47     9    14   ar
    48     7    23    3
    49    23    16    1
    50    16    30   ar
    51    18    12    1
    52    18    34   ar
    53    15    14    1
    54    12     2   ar
    55    14    41   ar
    56     2    41   ar
    57    41    42    1
    58    30    34   ar
    59    30    31    1
    60    34    35    1
