@<TRIPOS>MOLECULE
4037149.cif
 44 47 0 0 0
SMALL
GASTEIGER

@<TRIPOS>ATOM
      1 O          -1.9097    7.0270   12.1608 O.3     1  LIG1       -0.3749
      2 O           0.7187    4.5654    7.7124 O.3     1  LIG1       -0.3824
      3 O           2.7714    9.6748   11.2503 O.3     1  LIG1       -0.3752
      4 C           0.9587    8.2032   11.6358 C.3     1  LIG1        0.0156
      5 H           0.7556    8.8749   12.3205 H       1  LIG1        0.0378
      6 C          -0.7747    6.4279   11.5184 C.3     1  LIG1        0.0859
      7 H          -0.8585    5.4547   11.4382 H       1  LIG1        0.0649
      8 C          -0.6211    7.1018   10.1894 C.3     1  LIG1        0.0131
      9 C           0.4693    5.0152    9.0387 C.3     1  LIG1        0.0541
     10 H           1.2617    4.8863    9.5830 H       1  LIG1        0.0565
     11 H          -0.2542    4.5012    9.4295 H       1  LIG1        0.0565
     12 C           0.1020    6.4711    9.0137 C.3     1  LIG1        0.0095
     13 C           0.6500    8.8387    9.0907 C.3     1  LIG1       -0.0421
     14 H           1.3911    9.4519    9.2193 H       1  LIG1        0.0274
     15 H           0.0031    9.2489    8.4965 H       1  LIG1        0.0274
     16 C          -2.1993    6.4385   13.4229 C.3     1  LIG1        0.0372
     17 H          -1.4574    6.5741   14.0177 H       1  LIG1        0.0524
     18 H          -2.3503    5.4968   13.3103 H       1  LIG1        0.0524
     19 H          -2.9850    6.8466   13.7936 H       1  LIG1        0.0524
     20 C           0.0045    8.4742   10.4312 C.3     1  LIG1       -0.0223
     21 H          -0.6823    9.1300   10.6740 H       1  LIG1        0.0314
     22 C           2.4654    8.2709   11.3742 C.3     1  LIG1        0.0833
     23 H           2.9047    7.9610   12.1931 H       1  LIG1        0.0646
     24 C           0.5196    6.8477   12.1936 C.2     1  LIG1       -0.0416
     25 C           2.5091    7.1239    9.0506 C.2     1  LIG1       -0.0818
     26 H           3.0427    6.6125    8.4858 H       1  LIG1        0.0573
     27 C          -1.3687    6.8399    8.9176 C.3     1  LIG1       -0.0349
     28 H          -1.6079    7.6032    8.3692 H       1  LIG1        0.0278
     29 H          -2.0157    6.1172    8.9154 H       1  LIG1        0.0278
     30 C           1.1424    7.4946    8.5225 C.3     1  LIG1       -0.0142
     31 H           1.1533    7.5239    7.5436 H       1  LIG1        0.0349
     32 C           3.0428    7.4464   10.2374 C.2     1  LIG1       -0.0587
     33 H           3.8981    7.1140   10.3870 H       1  LIG1        0.0595
     34 C           1.1520    6.1260   13.1198 C.2     1  LIG1       -0.0966
     35 H           0.8024    5.3074   13.3900 H       1  LIG1        0.0535
     36 H           1.9424    6.4404   13.4944 H       1  LIG1        0.0535
     37 C           1.1265    3.2063    7.6944 C.3     1  LIG1        0.0365
     38 H           0.4382    2.6611    8.0822 H       1  LIG1        0.0523
     39 H           1.9362    3.1081    8.2019 H       1  LIG1        0.0523
     40 H           1.2812    2.9311    6.7886 H       1  LIG1        0.0523
     41 C           4.1684    9.9429   11.2198 C.3     1  LIG1        0.0372
     42 H           4.5313    9.6550   10.3794 H       1  LIG1        0.0524
     43 H           4.6007    9.4693   11.9338 H       1  LIG1        0.0524
     44 H           4.3161   10.8859   11.3261 H       1  LIG1        0.0524
@<TRIPOS>BOND
     1    40    37    1
     2    31    30    1
     3    37     2    1
     4    37    38    1
     5    37    39    1
     6     2     9    1
     7    28    27    1
     8    26    25    1
     9    15    13    1
    10    30    12    1
    11    30    25    1
    12    30    13    1
    13    29    27    1
    14    27    12    1
    15    27     8    1
    16    12     9    1
    17    12     8    1
    18     9    11    1
    19     9    10    1
    20    25    32    2
    21    13    14    1
    22    13    20    1
    23     8    20    1
    24     8     6    1
    25    32    33    1
    26    32    22    1
    27    42    41    1
    28    20    21    1
    29    20     4    1
    30    41     3    1
    31    41    44    1
    32    41    43    1
    33     3    22    1
    34    22     4    1
    35    22    23    1
    36     7     6    1
    37     6     1    1
    38     6    24    1
    39     4    24    1
    40     4     5    1
    41     1    16    1
    42    24    34    2
    43    34    35    1
    44    34    36    1
    45    18    16    1
    46    16    19    1
    47    16    17    1
