@<TRIPOS>MOLECULE
C13 H14 F3 N O3
 34 36 0 0 0
SMALL
GASTEIGER

@<TRIPOS>ATOM
      1 F           5.3466    7.8164   18.3820 F       1  LIG1       -0.1654
      2 F           5.9477    6.1708   19.6225 F       1  LIG1       -0.1654
      3 F           3.8776    6.5150   19.2030 F       1  LIG1       -0.1654
      4 O           5.4316   -0.1839   20.6713 O.3     1  LIG1       -0.4951
      5 O           6.5465    5.7739   16.9457 O.3     1  LIG1       -0.3568
      6 H           6.7346    6.5767   16.6406 H       1  LIG1        0.2131
      7 O           4.2745    6.0804   16.5337 O.3     1  LIG1       -0.3394
      8 N           4.2444    3.2669   17.0020 N.3     1  LIG1       -0.2819
      9 C           5.3923   -1.1335   21.7039 C.3     1  LIG1        0.0788
     10 H           5.4391   -0.6772   22.5704 H       1  LIG1        0.0660
     11 H           6.1537   -1.7449   21.6160 H       1  LIG1        0.0660
     12 H           4.5568   -1.6431   21.6469 H       1  LIG1        0.0660
     13 C           4.4197    0.7265   20.5856 C.ar    1  LIG1        0.1204
     14 C           4.5840    1.6935   19.5989 C.ar    1  LIG1       -0.0152
     15 H           5.3587    1.6791   19.0488 H       1  LIG1        0.0657
     16 C           3.6276    2.6769   19.4126 C.ar    1  LIG1       -0.0251
     17 C           3.7601    3.6984   18.3305 C.3     1  LIG1        0.0572
     18 H           3.0277    4.3797   18.3064 H       1  LIG1        0.0530
     19 C           5.0689    4.1783   17.8213 C.3     1  LIG1        0.0939
     20 H           5.8673    3.7539   18.2490 H       1  LIG1        0.0538
     21 C           5.2523    5.6375   17.4311 C.3     1  LIG1        0.2832
     22 C           5.0908    6.5397   18.6593 C.3     1  LIG1        0.4457
     23 C           4.1518    5.1730   15.4091 C.3     1  LIG1        0.0640
     24 H           5.0480    4.9880   15.0322 H       1  LIG1        0.0574
     25 H           3.5993    5.5923   14.7030 H       1  LIG1        0.0574
     26 C           3.5125    3.8813   15.8547 C.3     1  LIG1        0.0236
     27 H           2.5746    4.0549   16.1214 H       1  LIG1        0.0449
     28 H           3.5003    3.2442   15.0963 H       1  LIG1        0.0449
     29 C           2.5041    2.6995   20.2407 C.ar    1  LIG1       -0.0568
     30 H           1.8462    3.3767   20.1335 H       1  LIG1        0.0621
     31 C           2.3530    1.7336   21.2163 C.ar    1  LIG1       -0.0580
     32 H           1.5847    1.7531   21.7751 H       1  LIG1        0.0619
     33 C           3.2926    0.7409   21.3973 C.ar    1  LIG1       -0.0199
     34 H           3.1711    0.0771   22.0667 H       1  LIG1        0.0654
@<TRIPOS>BOND
     1    25    23    1
     2    24    23    1
     3    28    26    1
     4    23    26    1
     5    23     7    1
     6    26    27    1
     7    26     8    1
     8     7    21    1
     9     6     5    1
    10     5    21    1
    11     8    19    1
    12     8    17    1
    13    21    19    1
    14    21    22    1
    15    19    20    1
    16    19    17    1
    17    18    17    1
    18    17    16    1
    19     1    22    1
    20    22     3    1
    21    22     2    1
    22    15    14    1
    23    16    14   ar
    24    16    29   ar
    25    14    13   ar
    26    30    29    1
    27    29    31   ar
    28    13     4    1
    29    13    33   ar
    30     4     9    1
    31    31    33   ar
    32    31    32    1
    33    33    34    1
    34    11     9    1
    35    12     9    1
    36     9    10    1
