@<TRIPOS>MOLECULE
4037860.cif
 28 29 0 0 0
SMALL
GASTEIGER

@<TRIPOS>ATOM
      1 F          -4.4017   11.0786    7.7990 F       1  LIG1       -0.2054
      2 F          -3.2175   10.0556    3.3916 F       1  LIG1       -0.2054
      3 O          -0.1428   16.7842    6.3956 O.3     1  LIG1       -0.5061
      4 H          -0.7484   16.1508    6.4010 H       1  LIG1        0.2922
      5 O          -1.2070   14.4767    6.3398 O.2     1  LIG1       -0.2916
      6 C           3.4320   16.2890    6.1622 C.ar    1  LIG1       -0.0583
      7 H           4.2202   16.8191    6.1388 H       1  LIG1        0.0619
      8 C           2.2035   16.9063    6.2600 C.ar    1  LIG1       -0.0195
      9 H           2.1491   17.8535    6.3083 H       1  LIG1        0.0654
     10 C           1.0446   16.1390    6.2876 C.ar    1  LIG1        0.1273
     11 C           1.1247   14.7324    6.2127 C.ar    1  LIG1        0.0591
     12 C          -0.1053   13.9373    6.2418 C.2     1  LIG1        0.1709
     13 C          -0.0148   12.4202    6.1699 C.3     1  LIG1        0.0359
     14 H           0.5793   12.1671    5.4193 H       1  LIG1        0.0394
     15 H           0.3936   12.0811    7.0056 H       1  LIG1        0.0394
     16 C          -1.3556   11.7619    5.9771 C.ar    1  LIG1       -0.0345
     17 C          -2.2796   11.7197    7.0193 C.ar    1  LIG1       -0.0227
     18 H          -2.0737   12.0951    7.8674 H       1  LIG1        0.0649
     19 C          -3.4952   11.1231    6.7895 C.ar    1  LIG1        0.1264
     20 C          -3.8607   10.5550    5.5856 C.ar    1  LIG1        0.0088
     21 H          -4.7105   10.1503    5.4534 H       1  LIG1        0.0675
     22 C          -2.9129   10.6131    4.5903 C.ar    1  LIG1        0.1264
     23 C          -1.6758   11.2029    4.7446 C.ar    1  LIG1       -0.0227
     24 H          -1.0564   11.2267    4.0247 H       1  LIG1        0.0649
     25 C           2.3916   14.1415    6.1249 C.ar    1  LIG1       -0.0477
     26 H           2.4618   13.1955    6.0838 H       1  LIG1        0.0626
     27 C           3.5385   14.9037    6.0967 C.ar    1  LIG1       -0.0609
     28 H           4.3903   14.4881    6.0336 H       1  LIG1        0.0618
@<TRIPOS>BOND
     1     2    22    1
     2    24    23    1
     3    22    23   ar
     4    22    20   ar
     5    23    16   ar
     6    14    13    1
     7    21    20    1
     8    20    19   ar
     9    16    13    1
    10    16    17   ar
    11    28    27    1
    12    26    25    1
    13    27    25   ar
    14    27     6   ar
    15    25    11   ar
    16     7     6    1
    17     6     8   ar
    18    13    12    1
    19    13    15    1
    20    11    12    1
    21    11    10   ar
    22    12     5    2
    23     8    10   ar
    24     8     9    1
    25    10     3    1
    26     3     4    1
    27    19    17   ar
    28    19     1    1
    29    17    18    1
