@<TRIPOS>MOLECULE
C26 H29 N O6 S
 63 65 0 0 0
SMALL
GASTEIGER

@<TRIPOS>ATOM
      1 C          -4.4222    1.1630   14.7213 C.ar    1  LIG1        0.0367
      2 C          -5.4836    1.4204   13.8642 C.ar    1  LIG1       -0.0496
      3 H          -5.9102    2.2690   13.8813 H       1  LIG1        0.0625
      4 C          -5.9235    0.4441   12.9833 C.ar    1  LIG1       -0.0610
      5 H          -6.6666    0.6138   12.4171 H       1  LIG1        0.0618
      6 C          -5.2739   -0.7795   12.9313 C.ar    1  LIG1       -0.0617
      7 H          -5.5547   -1.4379   12.3059 H       1  LIG1        0.0618
      8 C          -4.2243   -1.0450   13.7829 C.ar    1  LIG1       -0.0610
      9 H          -3.7874   -1.8880   13.7482 H       1  LIG1        0.0618
     10 C          -3.8036   -0.0858   14.6898 C.ar    1  LIG1       -0.0496
     11 H          -3.0936   -0.2794   15.2908 H       1  LIG1        0.0625
     12 O          -3.9245    3.4506   15.1409 O.2     1  LIG1       -0.2702
     13 C          -3.8854    2.2890   15.5513 C.2     1  LIG1        0.2446
     14 N          -3.3363    1.9595   16.7274 N.am    1  LIG1       -0.3024
     15 H          -3.3390    1.1175   16.9829 H       1  LIG1        0.1497
     16 C          -2.7350    2.9635   17.5924 C.3     1  LIG1        0.0778
     17 H          -2.3019    3.6518   17.0102 H       1  LIG1        0.0570
     18 C          -3.7758    3.6657   18.4523 C.ar    1  LIG1        0.0579
     19 C          -4.6805    2.9437   19.2303 C.ar    1  LIG1        0.1320
     20 C          -5.6591    3.5708   20.0069 C.ar    1  LIG1        0.0223
     21 H          -6.2747    3.0634   20.5220 H       1  LIG1        0.0691
     22 C          -5.7031    4.9553   20.0000 C.ar    1  LIG1        0.1271
     23 C          -4.8115    5.7119   19.2613 C.ar    1  LIG1        0.0223
     24 H          -4.8568    6.6601   19.2767 H       1  LIG1        0.0691
     25 C          -3.8508    5.0663   18.4986 C.ar    1  LIG1        0.1320
     26 O          -4.5351    1.5902   19.1910 O.3     1  LIG1       -0.4945
     27 C          -5.4799    0.7780   19.8968 C.3     1  LIG1        0.0788
     28 H          -5.4047    0.9510   20.8593 H       1  LIG1        0.0660
     29 H          -5.2947   -0.1679   19.7197 H       1  LIG1        0.0660
     30 H          -6.3872    0.9948   19.5958 H       1  LIG1        0.0660
     31 O          -6.6132    5.6794   20.7171 O.3     1  LIG1       -0.4949
     32 C          -7.6342    4.9718   21.4076 C.3     1  LIG1        0.0788
     33 H          -8.1084    4.3869   20.7791 H       1  LIG1        0.0660
     34 H          -8.2664    5.6103   21.8002 H       1  LIG1        0.0660
     35 H          -7.2333    4.4307   22.1193 H       1  LIG1        0.0660
     36 O          -2.9111    5.7319   17.7675 O.3     1  LIG1       -0.4945
     37 C          -3.0376    7.1528   17.6812 C.3     1  LIG1        0.0788
     38 H          -3.9175    7.3811   17.3147 H       1  LIG1        0.0660
     39 H          -2.3377    7.5081   17.0959 H       1  LIG1        0.0660
     40 H          -2.9460    7.5434   18.5747 H       1  LIG1        0.0660
     41 C          -1.6423    2.3474   18.4930 C.3     1  LIG1        0.1017
     42 H          -2.0873    1.6326   19.0323 H       1  LIG1        0.0559
     43 C          -1.0669    3.3432   19.4869 C.3     1  LIG1       -0.0404
     44 H          -0.6782    4.1005   19.0013 H       1  LIG1        0.0249
     45 H          -0.3720    2.9067   20.0224 H       1  LIG1        0.0249
     46 H          -1.7801    3.6645   20.0771 H       1  LIG1        0.0249
     47 O          -0.8414    0.5732   16.6886 O.2     1  LIG1       -0.1690
     48 O           0.6426    1.0996   18.5976 O.2     1  LIG1       -0.1690
     49 S          -0.2939    1.5496   17.5935 S.O2    1  LIG1        0.0015
     50 C           0.5281    2.7673   16.6056 C.ar    1  LIG1        0.0886
     51 C           1.5799    3.5022   17.1357 C.ar    1  LIG1       -0.0366
     52 H           1.8169    3.4091   18.0514 H       1  LIG1        0.0637
     53 C           2.2798    4.3730   16.3173 C.ar    1  LIG1       -0.0570
     54 H           2.9965    4.8794   16.6802 H       1  LIG1        0.0621
     55 C           1.9537    4.5203   14.9759 C.ar    1  LIG1       -0.0503
     56 C           0.9030    3.7702   14.4723 C.ar    1  LIG1       -0.0570
     57 H           0.6647    3.8592   13.5568 H       1  LIG1        0.0621
     58 C           0.1894    2.8894   15.2766 C.ar    1  LIG1       -0.0366
     59 H          -0.5241    2.3776   14.9133 H       1  LIG1        0.0637
     60 C           2.7515    5.4407   14.0870 C.3     1  LIG1       -0.0397
     61 H           2.6519    6.3638   14.3991 H       1  LIG1        0.0278
     62 H           2.4233    5.3704   13.1666 H       1  LIG1        0.0278
     63 H           3.6973    5.1856   14.1165 H       1  LIG1        0.0278
@<TRIPOS>BOND
     1     7     6    1
     2     5     4    1
     3     6     4   ar
     4     6     8   ar
     5     4     2   ar
     6    62    60    1
     7    57    56    1
     8     9     8    1
     9     8    10   ar
    10     2     3    1
    11     2     1   ar
    12    60    63    1
    13    60    61    1
    14    60    55    1
    15    56    55   ar
    16    56    58   ar
    17    10     1   ar
    18    10    11    1
    19     1    13    1
    20    59    58    1
    21    55    53   ar
    22    12    13    2
    23    58    50   ar
    24    13    14   am
    25    53    54    1
    26    53    51   ar
    27    50    51   ar
    28    50    49    1
    29    47    49    2
    30    14    15    1
    31    14    16    1
    32    17    16    1
    33    39    37    1
    34    51    52    1
    35    38    37    1
    36    16    18    1
    37    16    41    1
    38    49    41    1
    39    49    48    2
    40    37    36    1
    41    37    40    1
    42    36    25    1
    43    18    25   ar
    44    18    19   ar
    45    41    42    1
    46    41    43    1
    47    25    23   ar
    48    44    43    1
    49    26    19    1
    50    26    27    1
    51    19    20   ar
    52    23    24    1
    53    23    22   ar
    54    43    45    1
    55    43    46    1
    56    30    27    1
    57    29    27    1
    58    27    28    1
    59    22    20   ar
    60    22    31    1
    61    20    21    1
    62    31    32    1
    63    33    32    1
    64    32    34    1
    65    32    35    1
