@<TRIPOS>MOLECULE
C25 H20 N2 O3
 50 54 0 0 0
SMALL
GASTEIGER

@<TRIPOS>ATOM
      1 C           1.7537    0.7596    6.9215 C.3     1  LIG1        0.0790
      2 H           1.0704    0.0917    7.0104 H       1  LIG1        0.0660
      3 H           2.3051    0.5538    6.1622 H       1  LIG1        0.0660
      4 H           1.3467    1.6202    6.7974 H       1  LIG1        0.0660
      5 C           3.9724   -0.4856   10.3156 C.3     1  LIG1        0.0791
      6 H           3.6551   -0.8914   11.1254 H       1  LIG1        0.0660
      7 H           4.8848   -0.7415   10.1647 H       1  LIG1        0.0660
      8 H           3.4319   -0.7776    9.5779 H       1  LIG1        0.0660
      9 C           6.6150    1.4941   11.3052 C.3     1  LIG1        0.0790
     10 H           7.0170    1.7334   12.1430 H       1  LIG1        0.0660
     11 H           7.2872    1.1401   10.7176 H       1  LIG1        0.0660
     12 H           5.9380    0.8297   11.4533 H       1  LIG1        0.0660
     13 O           6.0225    2.6576   10.7087 O.3     1  LIG1       -0.4907
     14 O           3.8895    0.9445   10.4327 O.3     1  LIG1       -0.4885
     15 O           2.5531    0.7785    8.0938 O.3     1  LIG1       -0.4913
     16 C           4.4529    5.7314    4.5253 C.ar    1  LIG1        0.0899
     17 C           3.5496    5.9542    3.4587 C.ar    1  LIG1       -0.0342
     18 H           2.8627    5.3474    3.3007 H       1  LIG1        0.0639
     19 C           3.6794    7.0415    2.6692 C.ar    1  LIG1       -0.0596
     20 H           3.0728    7.1800    1.9783 H       1  LIG1        0.0618
     21 C           4.7186    7.9686    2.8770 C.ar    1  LIG1       -0.0596
     22 H           4.7901    8.7115    2.3231 H       1  LIG1        0.0618
     23 C           5.6173    7.7883    3.8768 C.ar    1  LIG1       -0.0342
     24 H           6.3034    8.4033    4.0025 H       1  LIG1        0.0639
     25 C           5.5094    6.6639    4.7305 C.ar    1  LIG1        0.0899
     26 C           6.2072    5.4725    6.5473 C.ar    1  LIG1        0.0911
     27 C           7.1079    5.2732    7.6380 C.ar    1  LIG1       -0.0258
     28 H           7.8388    5.8407    7.7243 H       1  LIG1        0.0646
     29 C           6.9357    4.2930    8.5475 C.ar    1  LIG1       -0.0044
     30 C           8.0227    4.0798    9.5519 C.ar    1  LIG1       -0.0171
     31 C           8.2379    4.9680   10.5923 C.ar    1  LIG1       -0.0540
     32 H           7.6671    5.6932   10.7007 H       1  LIG1        0.0624
     33 C           9.2836    4.7918   11.4683 C.ar    1  LIG1       -0.0612
     34 H           9.4067    5.3891   12.1708 H       1  LIG1        0.0618
     35 C          10.1447    3.7367   11.3075 C.ar    1  LIG1       -0.0617
     36 H          10.8551    3.6218   11.8961 H       1  LIG1        0.0618
     37 C           9.9570    2.8494   10.2753 C.ar    1  LIG1       -0.0612
     38 H          10.5397    2.1336   10.1647 H       1  LIG1        0.0618
     39 C           8.8962    3.0234    9.3978 C.ar    1  LIG1       -0.0540
     40 H           8.7723    2.4214    8.6995 H       1  LIG1        0.0624
     41 C           5.7720    3.4167    8.4624 C.ar    1  LIG1        0.0375
     42 C           5.3926    2.5295    9.4992 C.ar    1  LIG1        0.1735
     43 C           4.3128    1.6706    9.3481 C.ar    1  LIG1        0.2042
     44 C           3.5815    1.6717    8.1468 C.ar    1  LIG1        0.1658
     45 C           3.8772    2.5781    7.1678 C.ar    1  LIG1       -0.0062
     46 H           3.3683    2.5978    6.3897 H       1  LIG1        0.0662
     47 C           4.9418    3.4789    7.3252 C.ar    1  LIG1        0.0174
     48 C           5.1385    4.5371    6.3521 C.ar    1  LIG1        0.0978
     49 N           6.3980    6.5101    5.7375 N.ar    1  LIG1       -0.2436
     50 N           4.2876    4.6617    5.3356 N.ar    1  LIG1       -0.2430
@<TRIPOS>BOND
     1    20    19    1
     2    22    21    1
     3    19    21   ar
     4    19    17   ar
     5    21    23   ar
     6    18    17    1
     7    17    16   ar
     8    23    24    1
     9    23    25   ar
    10    16    25   ar
    11    16    50   ar
    12    25    49   ar
    13    50    48   ar
    14    49    26   ar
    15     3     1    1
    16    48    26   ar
    17    48    47   ar
    18    46    45    1
    19    26    27   ar
    20     4     1    1
    21     1     2    1
    22     1    15    1
    23    45    47   ar
    24    45    44   ar
    25    47    41   ar
    26    27    28    1
    27    27    29   ar
    28    15    44    1
    29    44    43   ar
    30    41    29   ar
    31    41    42   ar
    32    29    30    1
    33    40    39    1
    34    43    42   ar
    35    43    14    1
    36    39    30   ar
    37    39    37   ar
    38    42    13    1
    39    30    31   ar
    40     8     5    1
    41    38    37    1
    42     7     5    1
    43    37    35   ar
    44     5    14    1
    45     5     6    1
    46    31    32    1
    47    31    33   ar
    48    13     9    1
    49    11     9    1
    50     9    12    1
    51     9    10    1
    52    35    33   ar
    53    35    36    1
    54    33    34    1
