@<TRIPOS>MOLECULE
gamma glycine
 10 9 0 0 0
SMALL
GASTEIGER

@<TRIPOS>ATOM
      1 O           1.5896    4.1218    4.0018 O.co2   1  GLY1       -0.2403
      2 OXT         3.8195    4.0391    4.1703 O.co2   1  GLY1       -0.2403
      3 N           1.6177    4.2227    1.3147 N.4     1  GLY1        0.2267
      4 H1          1.7340    4.1762    0.4338 H       1  GLY1        0.2000
      5 H2          1.3654    5.0466    1.5379 H       1  GLY1        0.2000
      6 H3          0.9890    3.6430    1.5621 H       1  GLY1        0.2000
      7 C           2.7600    4.0464    3.5110 C.2     1  GLY1        0.3996
      8 CA          2.8800    3.8957    1.9943 C.3     1  GLY1        0.0680
      9 HA1         3.5805    4.4824    1.6682 H       1  GLY1        0.0933
     10 HA2         3.1314    2.9833    1.7816 H       1  GLY1        0.0933
@<TRIPOS>BOND
     1     4     3    1
     2     3     5    1
     3     3     6    1
     4     3     8    1
     5     9     8    1
     6    10     8    1
     7     8     7    1
     8     7     1   ar
     9     7     2   ar
