@<TRIPOS>MOLECULE
4038462.cif
 29 29 0 0 0
SMALL
GASTEIGER

@<TRIPOS>ATOM
      1 O           2.9128    5.2584    2.0559 O.3     1  LIG1       -0.3386
      2 O           2.2894    7.3739    2.6231 O.3     1  LIG1       -0.3386
      3 O           0.9823    9.7083   -0.6476 O.2     1  LIG1       -0.3000
      4 C           1.1928    6.3634    0.7421 C.2     1  LIG1        0.0011
      5 C           0.7097    7.4249   -0.0386 C.3     1  LIG1        0.0859
      6 C           0.4722    5.1744    0.7631 C.2     1  LIG1       -0.0566
      7 C           2.4772    6.5004    1.5307 C.3     1  LIG1        0.1841
      8 C           3.1505    5.4212    3.4884 C.3     1  LIG1        0.0956
      9 C           3.2857    6.9613    3.6048 C.3     1  LIG1        0.0956
     10 C           1.9426    4.8757    4.2307 C.3     1  LIG1       -0.0333
     11 C           4.3942    4.6239    3.8299 C.3     1  LIG1       -0.0333
     12 C           2.8578    7.5538    4.9349 C.3     1  LIG1       -0.0333
     13 C           4.6615    7.4681    3.1935 C.3     1  LIG1       -0.0333
     14 C           1.4412    8.7227   -0.1246 C.2     1  LIG1        0.1331
     15 H           0.7950    4.4374    1.2867 H       1  LIG1        0.0619
     16 H           3.1363    6.8405    0.9214 H       1  LIG1        0.0962
     17 H           2.1041    4.9138    5.1763 H       1  LIG1        0.0258
     18 H           1.1700    5.4037    4.0165 H       1  LIG1        0.0258
     19 H           1.7904    3.9649    3.9685 H       1  LIG1        0.0258
     20 H           4.6219    4.7654    4.7517 H       1  LIG1        0.0258
     21 H           4.2267    3.6904    3.6813 H       1  LIG1        0.0258
     22 H           5.1214    4.9112    3.2729 H       1  LIG1        0.0258
     23 H           3.4159    7.2063    5.6344 H       1  LIG1        0.0258
     24 H           2.9437    8.5094    4.9020 H       1  LIG1        0.0258
     25 H           1.9431    7.3205    5.1097 H       1  LIG1        0.0258
     26 H           5.3044    7.2295    3.8653 H       1  LIG1        0.0258
     27 H           4.9115    7.0712    2.3559 H       1  LIG1        0.0258
     28 H           4.6359    8.4232    3.1000 H       1  LIG1        0.0258
     29 H           2.3212    8.7760    0.2554 H       1  LIG1        0.1036
@<TRIPOS>BOND
     1     3    14    2
     2    14     5    1
     3    14    29    1
     4     5     4    1
     5     4     6    2
     6     4     7    1
     7     6    15    1
     8    16     7    1
     9     7     1    1
    10     7     2    1
    11     1     8    1
    12    27    13    1
    13     2     9    1
    14    28    13    1
    15    13     9    1
    16    13    26    1
    17    22    11    1
    18     8     9    1
    19     8    11    1
    20     8    10    1
    21     9    12    1
    22    21    11    1
    23    11    20    1
    24    19    10    1
    25    18    10    1
    26    10    17    1
    27    24    12    1
    28    12    25    1
    29    12    23    1
