@<TRIPOS>MOLECULE
4038089.cif
 70 72 0 0 0
SMALL
GASTEIGER

@<TRIPOS>ATOM
      1 C           4.1223    0.3659    7.3213 C.3     1  LIG1       -0.0108
      2 H           3.3995    0.3887    6.6597 H       1  LIG1        0.0281
      3 H           3.7450    0.2056    8.2113 H       1  LIG1        0.0281
      4 H           4.7486   -0.3532    7.0978 H       1  LIG1        0.0281
      5 C           4.8528    1.6907    7.3149 C.3     1  LIG1        0.1649
      6 C           3.9142    2.8593    7.5924 C.3     1  LIG1       -0.0108
      7 H           4.4288    3.6931    7.6135 H       1  LIG1        0.0281
      8 H           3.4731    2.7250    8.4573 H       1  LIG1        0.0281
      9 H           3.2385    2.9100    6.8841 H       1  LIG1        0.0281
     10 C           6.3502    2.9199    5.9190 C.3     1  LIG1        0.0562
     11 H           5.8223    3.7548    5.9670 H       1  LIG1        0.0564
     12 H           6.8002    2.8932    5.0368 H       1  LIG1        0.0564
     13 C           7.3988    2.9203    7.0224 C.3     1  LIG1        0.0121
     14 H           7.8669    3.8034    7.0244 H       1  LIG1        0.0349
     15 C           6.7572    2.6962    8.3906 C.3     1  LIG1        0.0961
     16 H           6.2949    3.5193    8.7206 H       1  LIG1        0.0629
     17 C           7.9154    2.2807    9.3210 C.3     1  LIG1        0.1015
     18 C           9.0448    1.7576    8.3559 C.3     1  LIG1        0.0207
     19 H           9.7621    2.4540    8.3732 H       1  LIG1        0.0358
     20 C           8.4453    1.8056    6.9381 C.3     1  LIG1       -0.0375
     21 H           9.1401    2.0204    6.2669 H       1  LIG1        0.0274
     22 H           8.0244    0.9420    6.7007 H       1  LIG1        0.0274
     23 C           8.4360    3.5004   10.1134 C.3     1  LIG1       -0.0005
     24 H           9.3222    3.2744   10.4923 H       1  LIG1        0.0339
     25 H           8.5648    4.2538    9.4824 H       1  LIG1        0.0339
     26 C           7.5364    3.9637   11.2379 C.2     1  LIG1       -0.0769
     27 C           7.8103    3.3754   12.5863 C.3     1  LIG1       -0.0439
     28 H           8.7328    3.5753   12.8489 H       1  LIG1        0.0274
     29 H           7.6848    2.4035   12.5511 H       1  LIG1        0.0274
     30 H           7.1935    3.7604   13.2417 H       1  LIG1        0.0274
     31 C           6.5752    4.8565   11.0452 C.2     1  LIG1       -0.0996
     32 H           6.0370    5.1397   11.7742 H       1  LIG1        0.0534
     33 H           6.4244    5.2126   10.1773 H       1  LIG1        0.0534
     34 C           9.7334    0.4317    8.7674 C.3     1  LIG1        0.0814
     35 C          11.1017    0.3125    8.0507 C.3     1  LIG1       -0.0074
     36 H          10.9572    0.4990    7.0783 H       1  LIG1        0.0330
     37 C          11.6336   -1.1182    8.1826 C.3     1  LIG1        0.0113
     38 H          12.5035   -1.1812    7.7150 H       1  LIG1        0.0345
     39 H          11.7904   -1.3158    9.1393 H       1  LIG1        0.0345
     40 C          10.6983   -2.1542    7.6170 C.2     1  LIG1        0.1377
     41 C           9.3307   -1.6238    7.2199 C.3     1  LIG1        0.0287
     42 H           9.4785   -0.9625    6.4849 H       1  LIG1        0.0386
     43 C           8.8135   -0.8190    8.4569 C.3     1  LIG1        0.0161
     44 H           7.9042   -0.4710    8.2286 H       1  LIG1        0.0378
     45 C           8.6575   -1.7552    9.6268 C.2     1  LIG1       -0.0846
     46 H           9.4459   -2.1213   10.0111 H       1  LIG1        0.0570
     47 C           7.4974   -2.1007   10.1535 C.2     1  LIG1       -0.1023
     48 H           6.6894   -1.7531    9.7931 H       1  LIG1        0.0532
     49 H           7.4701   -2.6969   10.8916 H       1  LIG1        0.0532
     50 C           6.9540   -2.1927    6.5004 C.3     1  LIG1       -0.0620
     51 H           6.9601   -1.3625    5.9799 H       1  LIG1        0.0233
     52 H           6.5633   -2.0241    7.3826 H       1  LIG1        0.0233
     53 H           6.4209   -2.8670    6.0317 H       1  LIG1        0.0233
     54 C           8.3855   -2.6992    6.6664 C.3     1  LIG1       -0.0366
     55 H           8.3757   -3.4688    7.3028 H       1  LIG1        0.0302
     56 C           8.9005   -3.1982    5.3113 C.3     1  LIG1       -0.0620
     57 H           8.3349   -3.9342    4.9980 H       1  LIG1        0.0233
     58 H           9.8228   -3.5137    5.4080 H       1  LIG1        0.0233
     59 H           8.8729   -2.4652    4.6613 H       1  LIG1        0.0233
     60 C          12.1476    1.2976    8.5657 C.3     1  LIG1       -0.0594
     61 H          12.2957    1.1457    9.5234 H       1  LIG1        0.0233
     62 H          11.8301    2.2147    8.4249 H       1  LIG1        0.0233
     63 H          12.9878    1.1644    8.0797 H       1  LIG1        0.0233
     64 O           5.4703    1.7922    6.0388 O.3     1  LIG1       -0.3488
     65 O           5.8603    1.5724    8.3233 O.3     1  LIG1       -0.3428
     66 O           7.4748    1.3062   10.2755 O.3     1  LIG1       -0.3853
     67 H           6.7979    0.9083    9.9766 H       1  LIG1        0.2103
     68 O          10.0476    0.4854   10.1658 O.3     1  LIG1       -0.3873
     69 H           9.3373    0.5513   10.6110 H       1  LIG1        0.2102
     70 O          11.0138   -3.3284    7.5492 O.2     1  LIG1       -0.2971
@<TRIPOS>BOND
     1    59    56    1
     2    57    56    1
     3    12    10    1
     4    56    58    1
     5    56    54    1
     6    10    11    1
     7    10    64    1
     8    10    13    1
     9    51    50    1
    10    53    50    1
    11    64     5    1
    12    21    20    1
    13    42    41    1
    14    50    54    1
    15    50    52    1
    16     2     1    1
    17    54    41    1
    18    54    55    1
    19    22    20    1
    20     9     6    1
    21    20    13    1
    22    20    18    1
    23    13    14    1
    24    13    15    1
    25    36    35    1
    26     4     1    1
    27    41    40    1
    28    41    43    1
    29     5     1    1
    30     5     6    1
    31     5    65    1
    32     1     3    1
    33    70    40    2
    34     6     7    1
    35     6     8    1
    36    40    37    1
    37    38    37    1
    38    35    37    1
    39    35    60    1
    40    35    34    1
    41    63    60    1
    42    37    39    1
    43    44    43    1
    44    65    15    1
    45    18    19    1
    46    18    34    1
    47    18    17    1
    48    15    16    1
    49    15    17    1
    50    62    60    1
    51    43    34    1
    52    43    45    1
    53    60    61    1
    54    34    68    1
    55    17    23    1
    56    17    66    1
    57    25    23    1
    58    45    46    1
    59    45    47    2
    60    48    47    1
    61    67    66    1
    62    23    24    1
    63    23    26    1
    64    47    49    1
    65    68    69    1
    66    33    31    1
    67    31    26    2
    68    31    32    1
    69    26    27    1
    70    29    27    1
    71    27    28    1
    72    27    30    1
