@<TRIPOS>MOLECULE
C31 H54 N4 P, B F4
 95 97 0 0 0
SMALL
GASTEIGER

@<TRIPOS>ATOM
      1 C           4.2917    6.1651   17.5810 C.2     1  LIG1        0.0000
      2 C           3.0021    5.7567   17.4243 C.2     1  LIG1        0.0000
      3 C           2.0427    5.9532   16.2405 C.3     1  LIG1        0.0000
      4 C           1.0012    5.1174   17.1065 C.3     1  LIG1        0.0000
      5 C          -0.2214    5.9083   17.5321 C.3     1  LIG1        0.0000
      6 C           0.6101    3.7491   16.5606 C.3     1  LIG1        0.0000
      7 C           2.1073    4.6525   19.5414 C.3     1  LIG1        0.0000
      8 C           1.3045    3.3750   19.7321 C.3     1  LIG1        0.0000
      9 C           1.6196    5.7599   20.4629 C.3     1  LIG1        0.0000
     10 C           2.1467    6.4379   13.7983 C.3     1  LIG1        0.0000
     11 C           2.7441    7.8311   13.9349 C.3     1  LIG1        0.0000
     12 C           0.6384    6.5107   13.5481 C.3     1  LIG1        0.0000
     13 C           3.3011    4.4050   14.7198 C.3     1  LIG1        0.0000
     14 C           2.6836    3.3896   13.7563 C.3     1  LIG1        0.0000
     15 C           4.7038    4.7597   14.2338 C.3     1  LIG1        0.0000
     16 C           5.0182    6.5450   20.4296 C.ar    1  LIG1        0.0000
     17 C           4.8414    5.7968   21.5878 C.ar    1  LIG1        0.0000
     18 C           4.5282    6.4330   22.7869 C.ar    1  LIG1        0.0000
     19 C           4.3753    7.8047   22.8200 C.ar    1  LIG1        0.0000
     20 C           4.5051    8.5577   21.6623 C.ar    1  LIG1        0.0000
     21 C           4.8243    7.9325   20.4658 C.ar    1  LIG1        0.0000
     22 C           6.7835    3.7301   19.8279 C.3     1  LIG1        0.0000
     23 C           6.4905    2.3772   20.4365 C.3     1  LIG1        0.0000
     24 C           6.1352    1.3677   19.3542 C.3     1  LIG1        0.0000
     25 C           4.9732    1.8968   18.5215 C.3     1  LIG1        0.0000
     26 C           5.2848    3.2590   17.9598 C.3     1  LIG1        0.0000
     27 C           7.8142    7.2023   19.3295 C.3     1  LIG1        0.0000
     28 C           8.2561    8.5635   18.8201 C.3     1  LIG1        0.0000
     29 C           8.8117    8.4578   17.4053 C.3     1  LIG1        0.0000
     30 C           7.8194    7.7669   16.4775 C.3     1  LIG1        0.0000
     31 C           7.4012    6.4236   17.0596 C.3     1  LIG1        0.0000
     32 N           2.0973    5.0654   18.1330 N.pl3   1  LIG1        0.0000
     33 N           2.4492    5.5672   14.9298 N.3     1  LIG1        0.0000
     34 N           5.6136    4.2052   19.0450 N.3     1  LIG1        0.0000
     35 N           6.8256    6.6237   18.4007 N.3     1  LIG1        0.0000
     36 P           5.4550    5.8384   18.8396 P.3     1  LIG1        1.0000
     37 B           3.3709    3.3489   24.2068 B       2  LIG2        0.0000
     38 F           3.0831    3.3286   22.8614 F       2  LIG2        0.0000
     39 F           2.7647    4.4721   24.7539 F       2  LIG2        0.0000
     40 F           2.8594    2.2023   24.8146 F       2  LIG2        0.0000
     41 F           4.7256    3.4327   24.3926 F       2  LIG2        0.0000
     42 H           4.6121    6.7113   16.8772 H       1  LIG1        0.0000
     43 H           1.7451    6.8999   16.2100 H       1  LIG1        0.0000
     44 H          -0.7207    5.4189   18.2089 H       1  LIG1        0.0000
     45 H           0.0602    6.7589   17.8983 H       1  LIG1        0.0000
     46 H          -0.7866    6.0438   16.7536 H       1  LIG1        0.0000
     47 H          -0.0487    3.3409   17.1505 H       1  LIG1        0.0000
     48 H           1.3898    3.1752   16.5033 H       1  LIG1        0.0000
     49 H           0.2321    3.8395   15.6750 H       1  LIG1        0.0000
     50 H           3.0733    4.4693   19.7908 H       1  LIG1        0.0000
     51 H           1.6348    2.7094   19.1034 H       1  LIG1        0.0000
     52 H           1.4313    3.0670   20.6479 H       1  LIG1        0.0000
     53 H           0.3596    3.5426   19.5808 H       1  LIG1        0.0000
     54 H           2.0976    6.5948   20.2797 H       1  LIG1        0.0000
     55 H           1.7523    5.4993   21.3986 H       1  LIG1        0.0000
     56 H           0.6734    5.9109   20.3114 H       1  LIG1        0.0000
     57 H           2.5690    6.0208   12.9743 H       1  LIG1        0.0000
     58 H           3.6980    7.7692   14.1305 H       1  LIG1        0.0000
     59 H           2.2967    8.3038   14.6741 H       1  LIG1        0.0000
     60 H           2.6377    8.3268   13.1037 H       1  LIG1        0.0000
     61 H           0.3066    5.5993   13.4057 H       1  LIG1        0.0000
     62 H           0.2092    6.9179   14.3319 H       1  LIG1        0.0000
     63 H           0.4886    7.0590   12.7442 H       1  LIG1        0.0000
     64 H           3.3957    3.9444   15.6117 H       1  LIG1        0.0000
     65 H           1.7795    3.1785   14.0557 H       1  LIG1        0.0000
     66 H           3.2252    2.5864   13.7537 H       1  LIG1        0.0000
     67 H           2.6406    3.7722   12.8564 H       1  LIG1        0.0000
     68 H           5.0806    5.4287   14.8352 H       1  LIG1        0.0000
     69 H           5.2440    3.9559   14.2456 H       1  LIG1        0.0000
     70 H           4.6293    5.1122   13.3108 H       1  LIG1        0.0000
     71 H           4.9359    4.8219   21.5539 H       1  LIG1        0.0000
     72 H           4.4115    5.9158   23.5758 H       1  LIG1        0.0000
     73 H           4.1837    8.2497   23.6420 H       1  LIG1        0.0000
     74 H           4.3757    9.5077   21.6833 H       1  LIG1        0.0000
     75 H           4.9173    8.4482   19.6499 H       1  LIG1        0.0000
     76 H           6.9791    4.3823   20.5443 H       1  LIG1        0.0000
     77 H           7.5493    3.6591   19.1868 H       1  LIG1        0.0000
     78 H           7.2814    2.0747   20.9326 H       1  LIG1        0.0000
     79 H           5.7254    2.4765   21.0649 H       1  LIG1        0.0000
     80 H           5.8873    0.5117   19.7764 H       1  LIG1        0.0000
     81 H           6.9218    1.2465   18.7467 H       1  LIG1        0.0000
     82 H           4.1737    1.9845   19.1120 H       1  LIG1        0.0000
     83 H           4.7855    1.2711   17.7804 H       1  LIG1        0.0000
     84 H           6.0793    3.1851   17.3691 H       1  LIG1        0.0000
     85 H           4.4989    3.6394   17.4525 H       1  LIG1        0.0000
     86 H           7.4218    7.2771   20.2337 H       1  LIG1        0.0000
     87 H           8.5909    6.6129   19.3594 H       1  LIG1        0.0000
     88 H           8.9277    8.9549   19.4370 H       1  LIG1        0.0000
     89 H           7.4505    9.1386   18.7698 H       1  LIG1        0.0000
     90 H           9.0122    9.3551   17.0613 H       1  LIG1        0.0000
     91 H           9.6397    7.9266   17.4352 H       1  LIG1        0.0000
     92 H           7.0092    8.3448   16.3998 H       1  LIG1        0.0000
     93 H           8.2227    7.6494   15.5830 H       1  LIG1        0.0000
     94 H           8.1998    5.8437   17.1447 H       1  LIG1        0.0000
     95 H           6.7183    5.9782   16.4918 H       1  LIG1        0.0000
@<TRIPOS>BOND
     1    63    12    1
     2    67    14    1
     3    57    10    1
     4    60    11    1
     5    70    15    1
     6    61    12    1
     7    12    10    1
     8    12    62    1
     9    66    14    1
    10    14    65    1
    11    14    13    1
    12    10    11    1
    13    10    33    1
    14    11    58    1
    15    11    59    1
    16    15    69    1
    17    15    13    1
    18    15    68    1
    19    13    33    1
    20    13    64    1
    21    33     3    1
    22    93    30    1
    23    49     6    1
    24    43     3    1
    25     3     4    1
    26     3     2    1
    27    92    30    1
    28    30    31    1
    29    30    29    1
    30    95    31    1
    31    48     6    1
    32     6     4    1
    33     6    47    1
    34    46     5    1
    35    42     1    1
    36    31    94    1
    37    31    35    1
    38    90    29    1
    39     4     5    1
    40     4    32    1
    41    84    26    1
    42    29    91    1
    43    29    28    1
    44     2     1    2
    45     2    32    1
    46    85    26    1
    47     5    45    1
    48     5    44    1
    49     1    36    1
    50    83    25    1
    51    26    25    1
    52    26    34    1
    53    32     7    1
    54    35    36    1
    55    35    27    1
    56    25    82    1
    57    25    24    1
    58    81    24    1
    59    89    28    1
    60    28    27    1
    61    28    88    1
    62    36    34    1
    63    36    16    1
    64    34    22    1
    65    51     8    1
    66    77    22    1
    67    27    87    1
    68    27    86    1
    69    24    80    1
    70    24    23    1
    71     7     8    1
    72     7    50    1
    73     7     9    1
    74    53     8    1
    75    75    21    1
    76     8    52    1
    77    22    23    1
    78    22    76    1
    79    54     9    1
    80    56     9    1
    81    16    21   ar
    82    16    17   ar
    83    23    78    1
    84    23    79    1
    85     9    55    1
    86    21    20   ar
    87    71    17    1
    88    17    18   ar
    89    20    74    1
    90    20    19   ar
    91    18    19   ar
    92    18    72    1
    93    19    73    1
    94    38    37    1
    95    37    41    1
    96    37    39    1
    97    37    40    1
