@<TRIPOS>MOLECULE
C5 H9 N O2 S
 18 19 0 0 0
SMALL
GASTEIGER

@<TRIPOS>ATOM
      1 S           0.1548    3.0858    1.7266 S.O2    1  LIG1        0.0347
      2 O          -1.1284    3.5316    2.1738 O.2     1  LIG1       -0.1578
      3 O           0.9504    3.9937    0.9538 O.2     1  LIG1       -0.1578
      4 N           1.0482    2.5006    3.0292 N.3     1  LIG1       -0.1808
      5 C           2.2023    1.8506    2.3298 C.3     1  LIG1        0.0219
      6 H           2.6204    1.1973    2.9119 H       1  LIG1        0.0444
      7 H           2.8655    2.5169    2.0903 H       1  LIG1        0.0444
      8 C           1.6548    1.1506    1.0419 C.3     1  LIG1       -0.0147
      9 H           2.0555    1.5319    0.2449 H       1  LIG1        0.0297
     10 H           1.8397    0.1986    1.0616 H       1  LIG1        0.0297
     11 C           0.1535    1.4129    1.0732 C.3     1  LIG1        0.0954
     12 H          -0.3154    1.2912    0.2214 H       1  LIG1        0.0552
     13 C          -0.4536    0.6803    2.2746 C.3     1  LIG1       -0.0147
     14 H          -0.2174   -0.2605    2.2609 H       1  LIG1        0.0297
     15 H          -1.4202    0.7617    2.2763 H       1  LIG1        0.0297
     16 C           0.1663    1.3913    3.5157 C.3     1  LIG1        0.0219
     17 H          -0.5369    1.7486    4.0796 H       1  LIG1        0.0444
     18 H           0.6850    0.7584    4.0363 H       1  LIG1        0.0444
@<TRIPOS>BOND
     1    12    11    1
     2     9     8    1
     3     3     1    2
     4     8    10    1
     5     8    11    1
     6     8     5    1
     7    11     1    1
     8    11    13    1
     9     1     2    2
    10     1     4    1
    11     7     5    1
    12    14    13    1
    13    13    15    1
    14    13    16    1
    15     5     6    1
    16     5     4    1
    17     4    16    1
    18    16    18    1
    19    16    17    1
