@<TRIPOS>MOLECULE
C16 H23 O2 P
 42 43 0 0 0
SMALL
GASTEIGER

@<TRIPOS>ATOM
      1 P           3.3887    7.9988    9.0226 P.3     1  LIG1        0.1104
      2 O           6.3200    5.1333    8.9333 O.3     1  LIG1       -0.3881
      3 O           2.0304    7.3935    9.1141 O.2     1  LIG1       -0.3191
      4 C           3.6676    8.8020    7.4264 C.ar    1  LIG1        0.0095
      5 C           3.9070    5.6792   11.4720 C.3     1  LIG1       -0.0196
      6 H           2.9838    5.9893   11.2460 H       1  LIG1        0.0346
      7 C           3.9697    5.4626   12.9743 C.2     1  LIG1       -0.0766
      8 C           4.8909    6.7358   10.9696 C.3     1  LIG1       -0.0343
      9 H           5.8104    6.4596   11.2114 H       1  LIG1        0.0279
     10 H           4.7032    7.5932   11.4275 H       1  LIG1        0.0279
     11 C           4.8194    6.9571    9.4423 C.3     1  LIG1        0.0429
     12 H           5.6243    7.5053    9.2146 H       1  LIG1        0.0407
     13 C           4.8259    5.7834    7.1656 C.3     1  LIG1       -0.0354
     14 H           5.4356    6.4780    6.8398 H       1  LIG1        0.0257
     15 H           3.9014    6.0412    6.9680 H       1  LIG1        0.0257
     16 H           5.0305    4.9344    6.7210 H       1  LIG1        0.0257
     17 C           4.8064    9.5766    7.1964 C.ar    1  LIG1       -0.0515
     18 H           5.4464    9.6994    7.8876 H       1  LIG1        0.0625
     19 C           4.0430    4.5555    9.2075 C.3     1  LIG1       -0.0230
     20 H           3.1137    4.8144    8.9858 H       1  LIG1        0.0293
     21 H           4.2341    3.6960    8.7549 H       1  LIG1        0.0293
     22 C           2.7257    8.6364    6.4166 C.ar    1  LIG1       -0.0515
     23 H           1.9418    8.1241    6.5755 H       1  LIG1        0.0625
     24 C           2.9356    9.2235    5.1739 C.ar    1  LIG1       -0.0611
     25 H           2.2978    9.1023    4.4804 H       1  LIG1        0.0618
     26 C           4.9293    5.9544   13.7483 C.2     1  LIG1       -0.0994
     27 C           5.0015   10.1669    5.9548 C.ar    1  LIG1       -0.0611
     28 H           5.7735   10.6973    5.7968 H       1  LIG1        0.0618
     29 C           4.1589    4.3596   10.7176 C.3     1  LIG1       -0.0439
     30 H           5.0636    4.0229   10.9371 H       1  LIG1        0.0272
     31 H           3.5002    3.6818   11.0126 H       1  LIG1        0.0272
     32 C           2.8552    4.6330   13.5474 C.3     1  LIG1       -0.0438
     33 H           1.9932    5.0053   13.2657 H       1  LIG1        0.0274
     34 H           2.9106    4.6428   14.5259 H       1  LIG1        0.0274
     35 H           2.9343    3.7116   13.2247 H       1  LIG1        0.0274
     36 C           4.9979    5.6222    8.6741 C.3     1  LIG1        0.0728
     37 C           4.0655    9.9809    4.9424 C.ar    1  LIG1       -0.0617
     38 H           4.2042   10.3765    4.0899 H       1  LIG1        0.0618
     39 H           4.9015    5.7152   14.7119 H       1  LIG1        0.0534
     40 H           5.6879    6.4813   13.4213 H       1  LIG1        0.0534
     41 H           3.5416    8.9230    9.8794 H       1  LIG1        0.1037
     42 H           6.8350    5.7395    8.9619 H       1  LIG1        0.2102
@<TRIPOS>BOND
     1    38    37    1
     2    25    24    1
     3    37    24   ar
     4    37    27   ar
     5    24    22   ar
     6    28    27    1
     7    27    17   ar
     8    22    23    1
     9    22     4   ar
    10    16    13    1
    11    14    13    1
    12    15    13    1
    13    13    36    1
    14    17     4   ar
    15    17    18    1
    16     4     1    1
    17    36     2    1
    18    36    19    1
    19    36    11    1
    20    21    19    1
    21     2    42    1
    22    20    19    1
    23     1     3    2
    24     1    11    1
    25     1    41    1
    26    19    29    1
    27    12    11    1
    28    11     8    1
    29    29    30    1
    30    29    31    1
    31    29     5    1
    32     8     9    1
    33     8    10    1
    34     8     5    1
    35     6     5    1
    36     5     7    1
    37     7    32    1
    38     7    26    2
    39    35    32    1
    40    33    32    1
    41    40    26    1
    42    32    34    1
    43    26    39    1
