@<TRIPOS>MOLECULE
C11 H13 N O5 S2
 32 34 0 0 0
SMALL
GASTEIGER

@<TRIPOS>ATOM
      1 N           6.5766    6.0185   18.2196 N.3     1  LIG1       -0.2949
      2 H           7.3537    6.3204   18.5006 H       1  LIG1        0.1234
      3 S           4.0089    4.9684   20.1228 S.O2    1  LIG1        0.0872
      4 S           6.2769    8.2929   16.2369 S.2     1  LIG1       -0.1000
      5 O           4.7703    3.5942   19.9134 O.3     1  LIG1       -0.2378
      6 O           2.6202    4.7068   20.3187 O.2     1  LIG1       -0.1469
      7 O           4.7299    5.6837   21.1295 O.2     1  LIG1       -0.1469
      8 O           6.0333    4.7619   15.1325 O.2     1  LIG1       -0.2491
      9 O           8.0771    4.9818   15.9925 O.3     1  LIG1       -0.4668
     10 C           6.3397    4.7229   17.5468 C.3     1  LIG1        0.1133
     11 H           6.8769    4.0095   17.9988 H       1  LIG1        0.0580
     12 C           4.8314    4.3957   17.6792 C.3     1  LIG1        0.0368
     13 H           4.4090    4.3083   16.7780 H       1  LIG1        0.0364
     14 C           4.5631    3.1613   18.5193 C.3     1  LIG1        0.0832
     15 H           3.6355    2.8411   18.3867 H       1  LIG1        0.0588
     16 H           5.1897    2.4319   18.2809 H       1  LIG1        0.0588
     17 C           4.2271    5.5979   18.4537 C.3     1  LIG1        0.1305
     18 H           3.3557    5.8867   18.0557 H       1  LIG1        0.0585
     19 C           5.2967    6.7088   18.3327 C.3     1  LIG1        0.0649
     20 H           5.2919    7.2689   19.1598 H       1  LIG1        0.0535
     21 C           4.9957    7.5770   17.1361 C.ar    1  LIG1        0.0087
     22 C           3.7859    8.0259   16.6950 C.ar    1  LIG1       -0.0500
     23 H           2.9574    7.7570   17.0737 H       1  LIG1        0.0626
     24 C           3.8959    8.9454   15.6035 C.ar    1  LIG1       -0.0544
     25 H           3.1514    9.3430   15.1667 H       1  LIG1        0.0623
     26 C           5.1837    9.1806   15.2671 C.ar    1  LIG1       -0.0240
     27 H           5.4508    9.7706   14.5726 H       1  LIG1        0.0693
     28 C           6.7633    4.8294   16.0733 C.2     1  LIG1        0.3245
     29 C           8.5956    5.2485   14.6570 C.3     1  LIG1        0.0817
     30 H           9.5697    5.3458   14.6974 H       1  LIG1        0.0661
     31 H           8.3665    4.5045   14.0626 H       1  LIG1        0.0661
     32 H           8.1991    6.0760   14.3122 H       1  LIG1        0.0661
@<TRIPOS>BOND
     1    31    29    1
     2    32    29    1
     3    27    26    1
     4    29    30    1
     5    29     9    1
     6     8    28    2
     7    25    24    1
     8    26    24   ar
     9    26     4   ar
    10    24    22   ar
    11     9    28    1
    12    28    10    1
    13     4    21   ar
    14    22    23    1
    15    22    21   ar
    16    13    12    1
    17    21    19    1
    18    10    12    1
    19    10    11    1
    20    10     1    1
    21    12    17    1
    22    12    14    1
    23    18    17    1
    24     1    19    1
    25     1     2    1
    26    16    14    1
    27    19    17    1
    28    19    20    1
    29    15    14    1
    30    17     3    1
    31    14     5    1
    32     5     3    1
    33     3     6    2
    34     3     7    2
