@<TRIPOS>MOLECULE
4038027.cif
 22 23 0 0 0
SMALL
GASTEIGER

@<TRIPOS>ATOM
      1 N           3.9340    3.9446    3.3305 N.ar    1  LIG1       -0.2550
      2 C           3.9153    0.4187    6.9252 C.ar    1  LIG1       -0.0018
      3 C           3.1261    1.5678    6.6615 C.ar    1  LIG1       -0.0161
      4 C           4.5393    2.1026    4.7498 C.ar    1  LIG1        0.0015
      5 C           5.2992    0.9614    5.0077 C.ar    1  LIG1       -0.0442
      6 H           6.0167    0.7622    4.4510 H       1  LIG1        0.0630
      7 C           5.0136    0.1140    6.0743 C.ar    1  LIG1       -0.0083
      8 C           4.8529    3.0122    3.6145 C.ar    1  LIG1        0.0710
      9 C           3.4533    2.3828    5.5805 C.ar    1  LIG1       -0.0448
     10 H           2.9332    3.1344    5.4074 H       1  LIG1        0.0630
     11 C           2.0214    1.8458    7.5342 C.2     1  LIG1       -0.0540
     12 H           1.4890    2.5894    7.3705 H       1  LIG1        0.0624
     13 C           1.7379    1.0531    8.5855 C.2     1  LIG1       -0.0612
     14 H           1.0181    1.2675    9.1331 H       1  LIG1        0.0618
     15 C           4.1685    4.7661    2.3040 C.ar    1  LIG1        0.0283
     16 H           3.5327    5.4168    2.1126 H       1  LIG1        0.0830
     17 C           5.2904    4.7101    1.5120 C.ar    1  LIG1       -0.0436
     18 H           5.3993    5.2852    0.7897 H       1  LIG1        0.0633
     19 C           6.0294    2.9283    2.8896 C.ar    1  LIG1       -0.0357
     20 H           6.6759    2.3012    3.1199 H       1  LIG1        0.0639
     21 C           6.2388    3.7780    1.8239 C.ar    1  LIG1       -0.0583
     22 H           7.0195    3.7170    1.3221 H       1  LIG1        0.0619
@<TRIPOS>BOND
     1    18    17    1
     2    22    21    1
     3    17    21   ar
     4    17    15   ar
     5    21    19   ar
     6    16    15    1
     7    15     1   ar
     8    19    20    1
     9    19     8   ar
    10     1     8   ar
    11     8     4    1
    12     6     5    1
    13     4     5   ar
    14     4     9   ar
    15     5     7   ar
    16    10     9    1
    17     9     3   ar
    18     7     2   ar
    19     3     2   ar
    20     3    11    1
    21    12    11    1
    22    11    13    2
    23    13    14    1
