@<TRIPOS>MOLECULE
[1,2,5]thiadiazolo[3',4':5,6]naphtho[1,2-c][1,2,5]thiadiazole
 20 23 0 0 0
SMALL
GASTEIGER

@<TRIPOS>ATOM
      1 S           4.7169    1.4700    0.9902 S.2     1  LIG1        0.1165
      2 S           6.8000    9.6513    1.5118 S.2     1  LIG1        0.1165
      3 N           5.9053    2.5145    1.3302 N.ar    1  LIG1       -0.1902
      4 N           3.5302    2.4969    0.5887 N.ar    1  LIG1       -0.1908
      5 N           5.5956    8.6283    1.1672 N.ar    1  LIG1       -0.1902
      6 N           7.9894    8.6084    1.8664 N.ar    1  LIG1       -0.1908
      7 C           4.0328    3.7375    0.7176 C.ar    1  LIG1        0.1005
      8 C           3.3471    4.9678    0.4762 C.ar    1  LIG1       -0.0328
      9 H           2.4469    4.9693    0.1729 H       1  LIG1        0.0640
     10 C           4.0089    6.1354    0.6890 C.ar    1  LIG1       -0.0498
     11 H           3.5552    6.9578    0.5473 H       1  LIG1        0.0625
     12 C           5.3825    6.1566    1.1242 C.ar    1  LIG1        0.0125
     13 C           6.0883    7.3880    1.3275 C.ar    1  LIG1        0.1076
     14 C           7.4647    7.3774    1.7402 C.ar    1  LIG1        0.1005
     15 C           8.1517    6.1490    1.9851 C.ar    1  LIG1       -0.0328
     16 H           9.0534    6.1434    2.2832 H       1  LIG1        0.0640
     17 C           7.4782    4.9936    1.7798 C.ar    1  LIG1       -0.0498
     18 H           7.9256    4.1674    1.9200 H       1  LIG1        0.0625
     19 C           6.1005    4.9807    1.3548 C.ar    1  LIG1        0.0125
     20 C           5.3999    3.7451    1.1474 C.ar    1  LIG1        0.1076
@<TRIPOS>BOND
     1     9     8    1
     2     8    10   ar
     3     8     7   ar
     4    11    10    1
     5     4     7   ar
     6     4     1   ar
     7    10    12   ar
     8     7    20   ar
     9     1     3   ar
    10    12    13   ar
    11    12    19   ar
    12    20     3   ar
    13    20    19   ar
    14     5    13   ar
    15     5     2   ar
    16    13    14   ar
    17    19    17   ar
    18     2     6   ar
    19    14     6   ar
    20    14    15   ar
    21    17    18    1
    22    17    15   ar
    23    15    16    1
