@<TRIPOS>MOLECULE
C12 H13 Cl N2 O3
 31 32 0 0 0
SMALL
GASTEIGER

@<TRIPOS>ATOM
      1 CL          0.9928    5.5814    0.8158 Cl      1  LIG1       -0.0808
      2 O           1.1815    1.7840    1.3888 O.2     1  LIG1       -0.2609
      3 O           3.5112    4.1602    2.3102 O.2     1  LIG1       -0.4751
      4 O          -0.5263    2.8984    0.3396 O.3     1  LIG1       -0.0759
      5 N           2.3996    2.1283    1.9999 N.2     1  LIG1       -0.0202
      6 N           0.5736    2.9880    0.9013 N.4     1  LIG1        0.0764
      7 C           6.7592    3.6329    4.1366 C.3     1  LIG1       -0.0460
      8 C           9.0560    3.9347    5.2829 C.ar    1  LIG1       -0.0474
      9 C          10.1233    4.7359    5.7002 C.ar    1  LIG1       -0.0586
     10 C           1.3761    3.9865    1.2004 C.3     1  LIG1        0.2867
     11 C          11.2535    2.8313    6.6518 C.ar    1  LIG1       -0.0617
     12 C           2.4977    3.4272    1.8751 C.2     1  LIG1        0.2748
     13 C          11.2041    4.2004    6.3827 C.ar    1  LIG1       -0.0615
     14 C           4.5722    3.3994    2.9668 C.3     1  LIG1        0.0911
     15 C           7.8670    4.5767    4.5881 C.3     1  LIG1       -0.0276
     16 C           9.1266    2.5601    5.5433 C.ar    1  LIG1       -0.0586
     17 C          10.2208    2.0185    6.2190 C.ar    1  LIG1       -0.0615
     18 C           5.6473    4.3657    3.3856 C.3     1  LIG1       -0.0183
     19 H           6.3812    3.1910    4.9135 H       1  LIG1        0.0269
     20 H           7.1374    2.9507    3.5600 H       1  LIG1        0.0269
     21 H          10.1076    5.6470    5.5160 H       1  LIG1        0.0620
     22 H          11.9731    2.4691    7.1170 H       1  LIG1        0.0618
     23 H          11.8978    4.7533    6.6615 H       1  LIG1        0.0618
     24 H           4.9361    2.7398    2.3558 H       1  LIG1        0.0697
     25 H           4.2191    2.9366    3.7428 H       1  LIG1        0.0697
     26 H           8.1923    5.0555    3.8099 H       1  LIG1        0.0313
     27 H           7.4809    5.2317    5.1908 H       1  LIG1        0.0313
     28 H           8.4371    2.0026    5.2631 H       1  LIG1        0.0620
     29 H          10.2563    1.1035    6.3797 H       1  LIG1        0.0618
     30 H           5.2650    5.0501    3.9576 H       1  LIG1        0.0298
     31 H           6.0168    4.8000    2.6011 H       1  LIG1        0.0298
@<TRIPOS>BOND
     1     4     6    1
     2     1    10    1
     3     6    10    1
     4     6     2    1
     5    10    12    1
     6     2     5    1
     7    12     5    2
     8    12     3    1
     9     3    14    1
    10    24    14    1
    11    31    18    1
    12    14    18    1
    13    14    25    1
    14    18    30    1
    15    18     7    1
    16    20     7    1
    17    26    15    1
    18     7    15    1
    19     7    19    1
    20    15    27    1
    21    15     8    1
    22    28    16    1
    23     8    16   ar
    24     8     9   ar
    25    21     9    1
    26    16    17   ar
    27     9    13   ar
    28    17    29    1
    29    17    11   ar
    30    13    11   ar
    31    13    23    1
    32    11    22    1
