@<TRIPOS>MOLECULE
C14 H15 F4 N O2
 36 37 0 0 0
SMALL
GASTEIGER

@<TRIPOS>ATOM
      1 F           9.5669    2.1820    5.7158 F       1  LIG1       -0.1970
      2 F          11.3812    2.2056    6.9289 F       1  LIG1       -0.1970
      3 F          10.8365    3.2858    3.6559 F       1  LIG1       -0.1990
      4 F          11.9396    1.5648    4.4237 F       1  LIG1       -0.1990
      5 O           7.7359    4.1975   12.3576 O.2     1  LIG1       -0.2450
      6 O           5.8930    4.3723   11.0868 O.3     1  LIG1       -0.4645
      7 N          11.6230    5.0484    6.5894 N.3     1  LIG1       -0.2932
      8 C          10.3641    4.3020    6.4073 C.3     1  LIG1        0.1053
      9 H           9.8304    4.7472    5.6882 H       1  LIG1        0.0574
     10 C          10.7073    2.8807    5.9523 C.3     1  LIG1        0.3295
     11 C          11.5948    2.8549    4.7065 C.3     1  LIG1        0.3135
     12 C          12.8051    3.7197    4.8802 C.3     1  LIG1        0.0296
     13 H          13.2979    3.7813    4.0238 H       1  LIG1        0.0337
     14 H          13.4079    3.3196    5.5560 H       1  LIG1        0.0337
     15 C          12.3788    5.1122    5.3304 C.3     1  LIG1        0.0050
     16 H          13.1814    5.6782    5.4560 H       1  LIG1        0.0428
     17 H          11.8171    5.5279    4.6292 H       1  LIG1        0.0428
     18 C          11.3478    6.4128    7.0586 C.3     1  LIG1       -0.0120
     19 H          12.1882    6.9132    7.1188 H       1  LIG1        0.0391
     20 H          10.9257    6.3755    7.9421 H       1  LIG1        0.0391
     21 H          10.7458    6.8600    6.4275 H       1  LIG1        0.0391
     22 C           9.5305    4.2596    7.6725 C.ar    1  LIG1       -0.0244
     23 C          10.1075    3.9459    8.9065 C.ar    1  LIG1       -0.0561
     24 H          11.0337    3.7403    8.9567 H       1  LIG1        0.0621
     25 C           9.3350    3.9334   10.0572 C.ar    1  LIG1       -0.0475
     26 H           9.7343    3.7256   10.8937 H       1  LIG1        0.0626
     27 C           7.9708    4.2255    9.9897 C.ar    1  LIG1        0.0590
     28 C           7.3825    4.5189    8.7634 C.ar    1  LIG1       -0.0475
     29 H           6.4527    4.7072    8.7123 H       1  LIG1        0.0626
     30 C           8.1662    4.5351    7.6095 C.ar    1  LIG1       -0.0561
     31 H           7.7654    4.7360    6.7719 H       1  LIG1        0.0621
     32 C           7.2099    4.2548   11.2698 C.2     1  LIG1        0.3389
     33 C           5.1140    4.4776   12.3042 C.3     1  LIG1        0.0820
     34 H           4.1608    4.5140   12.0798 H       1  LIG1        0.0661
     35 H           5.3678    5.2930   12.7849 H       1  LIG1        0.0661
     36 H           5.2867    3.6970   12.8709 H       1  LIG1        0.0661
@<TRIPOS>BOND
     1     3    11    1
     2    13    12    1
     3     4    11    1
     4    17    15    1
     5    11    12    1
     6    11    10    1
     7    12    15    1
     8    12    14    1
     9    15    16    1
    10    15     7    1
    11     9     8    1
    12     1    10    1
    13    10     8    1
    14    10     2    1
    15     8     7    1
    16     8    22    1
    17    21    18    1
    18     7    18    1
    19    31    30    1
    20    18    19    1
    21    18    20    1
    22    30    22   ar
    23    30    28   ar
    24    22    23   ar
    25    29    28    1
    26    28    27   ar
    27    23    24    1
    28    23    25   ar
    29    27    25   ar
    30    27    32    1
    31    25    26    1
    32     6    32    1
    33     6    33    1
    34    32     5    2
    35    34    33    1
    36    33    35    1
    37    33    36    1
