@<TRIPOS>MOLECULE
C21 H19 I O2 S2
 45 47 0 0 0
SMALL
GASTEIGER

@<TRIPOS>ATOM
      1 I          -2.5151    1.4464    2.3995 I       1  LIG1       -0.0424
      2 S          -0.6950    5.3367    4.2484 S.3     1  LIG1       -0.0845
      3 S           1.4530    6.0978    6.2127 S.3     1  LIG1       -0.1212
      4 O           2.9198    3.8348    6.4989 O.2     1  LIG1       -0.2926
      5 O           3.3532    1.0266   -0.3672 O.3     1  LIG1       -0.4951
      6 C          -3.1097    5.0649    1.5940 C.ar    1  LIG1       -0.0536
      7 H          -2.4597    4.8625    0.9606 H       1  LIG1        0.0624
      8 C          -4.0510    6.0212    1.3044 C.ar    1  LIG1       -0.0612
      9 H          -4.0600    6.4346    0.4719 H       1  LIG1        0.0618
     10 C          -4.9877    6.3650    2.2637 C.ar    1  LIG1       -0.0617
     11 H          -5.6178    7.0274    2.0918 H       1  LIG1        0.0618
     12 C          -4.9746    5.7138    3.4738 C.ar    1  LIG1       -0.0612
     13 H          -5.5990    5.9453    4.1241 H       1  LIG1        0.0618
     14 C          -4.0592    4.7285    3.7427 C.ar    1  LIG1       -0.0536
     15 H          -4.0823    4.2843    4.5584 H       1  LIG1        0.0624
     16 C          -3.1009    4.3946    2.8002 C.ar    1  LIG1       -0.0111
     17 C          -2.0625    3.3832    3.0976 C.2     1  LIG1        0.0311
     18 C          -0.9254    3.6683    3.7104 C.2     1  LIG1        0.0163
     19 C           0.2713    2.7910    4.0775 C.3     1  LIG1        0.0463
     20 H          -0.0578    1.9931    4.5429 H       1  LIG1        0.0453
     21 C           1.0978    3.6042    5.0420 C.2     1  LIG1        0.0269
     22 C           0.7070    4.8997    5.1919 C.2     1  LIG1        0.0525
     23 C           2.3127    3.1120    5.7207 C.2     1  LIG1        0.1586
     24 C           2.8162    1.7236    5.4311 C.3     1  LIG1       -0.0016
     25 H           3.2386    1.7092    4.5688 H       1  LIG1        0.0309
     26 H           2.0793    1.1084    5.4363 H       1  LIG1        0.0309
     27 H           3.4518    1.4669    6.1033 H       1  LIG1        0.0309
     28 C           0.5279    7.5954    5.7995 C.3     1  LIG1       -0.0130
     29 H           0.4610    7.6774    4.8454 H       1  LIG1        0.0344
     30 H           0.9840    8.3606    6.1564 H       1  LIG1        0.0344
     31 H          -0.3524    7.5420    6.1796 H       1  LIG1        0.0344
     32 C           1.0752    2.3482    2.8558 C.ar    1  LIG1       -0.0347
     33 C           1.0851    1.0217    2.4331 C.ar    1  LIG1       -0.0542
     34 H           0.5624    0.3967    2.8804 H       1  LIG1        0.0622
     35 C           1.8530    0.6200    1.3665 C.ar    1  LIG1       -0.0197
     36 H           1.8458   -0.2716    1.1028 H       1  LIG1        0.0654
     37 C           2.6424    1.5401    0.6774 C.ar    1  LIG1        0.1201
     38 C           2.6557    2.8615    1.0924 C.ar    1  LIG1       -0.0197
     39 H           3.1919    3.4820    0.6529 H       1  LIG1        0.0654
     40 C           1.8687    3.2556    2.1616 C.ar    1  LIG1       -0.0542
     41 H           1.8697    4.1481    2.4214 H       1  LIG1        0.0622
     42 C           4.2894    1.8603   -0.9955 C.3     1  LIG1        0.0788
     43 H           4.6787    1.3987   -1.7414 H       1  LIG1        0.0660
     44 H           4.9792    2.0952   -0.3697 H       1  LIG1        0.0660
     45 H           3.8530    2.6572   -1.3044 H       1  LIG1        0.0660
@<TRIPOS>BOND
     1    43    42    1
     2    45    42    1
     3    42    44    1
     4    42     5    1
     5     5    37    1
     6     9     8    1
     7    39    38    1
     8    37    38   ar
     9    37    35   ar
    10     7     6    1
    11    38    40   ar
    12    36    35    1
    13     8     6   ar
    14     8    10   ar
    15    35    33   ar
    16     6    16   ar
    17    11    10    1
    18    40    41    1
    19    40    32   ar
    20    10    12   ar
    21     1    17    1
    22    33    32   ar
    23    33    34    1
    24    16    17    1
    25    16    14   ar
    26    32    19    1
    27    17    18    2
    28    12    14   ar
    29    12    13    1
    30    18    19    1
    31    18     2    1
    32    14    15    1
    33    19    20    1
    34    19    21    1
    35     2    22    1
    36    25    24    1
    37    29    28    1
    38    21    22    2
    39    21    23    1
    40    22     3    1
    41    24    26    1
    42    24    23    1
    43    24    27    1
    44    23     4    2
    45    28    30    1
    46    28    31    1
    47    28     3    1
