@<TRIPOS>MOLECULE
2,6-Dimethylpiperidinium tris(perfluorophenyl)borohydride
 57 60 0 0 0
SMALL
GASTEIGER

@<TRIPOS>ATOM
      1 B          10.1500    7.4625    0.8220 B       1  LIG1        0.0000
      2 N           9.9818    6.4497   -0.4746 N.4     1  LIG1        1.0000
      3 H          10.8111    6.3642   -0.7801 H       1  LIG1        0.0000
      4 C          11.1014    6.7660    1.9879 C.ar    1  LIG1        0.0000
      5 C          11.0020    7.0079    3.3647 C.ar    1  LIG1        0.0000
      6 C          11.8932    6.5378    4.3095 C.ar    1  LIG1        0.0000
      7 C          12.9717    5.7814    3.9180 C.ar    1  LIG1        0.0000
      8 C          13.1696    5.5459    2.5759 C.ar    1  LIG1        0.0000
      9 C          12.2494    6.0278    1.6643 C.ar    1  LIG1        0.0000
     10 C           8.6386    7.8698    1.3479 C.ar    1  LIG1        0.0000
     11 C           7.9218    7.1279    2.2739 C.ar    1  LIG1        0.0000
     12 C           6.6989    7.5034    2.7983 C.ar    1  LIG1        0.0000
     13 C           6.1215    8.6880    2.3808 C.ar    1  LIG1        0.0000
     14 C           6.7634    9.4426    1.4331 C.ar    1  LIG1        0.0000
     15 C           7.9850    9.0308    0.9405 C.ar    1  LIG1        0.0000
     16 C          11.0867    8.7744    0.4291 C.ar    1  LIG1        0.0000
     17 C          12.0620    8.8526   -0.5634 C.ar    1  LIG1        0.0000
     18 C          12.9681    9.8863   -0.7108 C.ar    1  LIG1        0.0000
     19 C          12.9190   10.9537    0.1575 C.ar    1  LIG1        0.0000
     20 C          11.9854   10.9455    1.1514 C.ar    1  LIG1        0.0000
     21 C          11.1159    9.8763    1.2829 C.ar    1  LIG1        0.0000
     22 C           9.4863    5.0368   -0.1372 C.3     1  LIG1        0.0000
     23 H           9.7138    4.8641    0.8004 H       1  LIG1        0.0000
     24 C           7.9633    4.8832   -0.2759 C.3     1  LIG1        0.0000
     25 H           7.7306    3.9458   -0.1864 H       1  LIG1        0.0000
     26 H           7.5302    5.3668    0.4450 H       1  LIG1        0.0000
     27 C           7.4428    5.3959   -1.5949 C.3     1  LIG1        0.0000
     28 H           6.4795    5.2841   -1.6368 H       1  LIG1        0.0000
     29 H           7.8416    4.8977   -2.3245 H       1  LIG1        0.0000
     30 C           7.7997    6.8688   -1.7163 C.3     1  LIG1        0.0000
     31 H           7.3941    7.3570   -0.9824 H       1  LIG1        0.0000
     32 H           7.4353    7.2179   -2.5441 H       1  LIG1        0.0000
     33 C           9.3065    7.0988   -1.6961 C.3     1  LIG1        0.0000
     34 H           9.4507    8.0652   -1.6267 H       1  LIG1        0.0000
     35 C          10.2150    3.9858   -0.9882 C.3     1  LIG1        0.0000
     36 H           9.9054    4.0367   -1.8954 H       1  LIG1        0.0000
     37 H          10.0360    3.1103   -0.6371 H       1  LIG1        0.0000
     38 H          11.1601    4.1531   -0.9636 H       1  LIG1        0.0000
     39 C           9.9345    6.6442   -3.0150 C.3     1  LIG1        0.0000
     40 H           9.7103    5.7250   -3.1769 H       1  LIG1        0.0000
     41 H          10.8880    6.7360   -2.9630 H       1  LIG1        0.0000
     42 H           9.5993    7.1870   -3.7331 H       1  LIG1        0.0000
     43 F           9.9990    7.7534    3.8715 F       1  LIG1        0.0000
     44 F          11.7060    6.7906    5.6049 F       1  LIG1        0.0000
     45 F          13.8220    5.2705    4.8226 F       1  LIG1        0.0000
     46 F          14.2360    4.8559    2.1578 F       1  LIG1        0.0000
     47 F          12.5333    5.7814    0.3625 F       1  LIG1        0.0000
     48 F           8.4126    5.9522    2.7252 F       1  LIG1        0.0000
     49 F           6.0866    6.7433    3.7206 F       1  LIG1        0.0000
     50 F           4.9459    9.0862    2.8868 F       1  LIG1        0.0000
     51 F           6.2038   10.5964    1.0272 F       1  LIG1        0.0000
     52 F           8.5314    9.8399    0.0069 F       1  LIG1        0.0000
     53 F          12.1945    7.8416   -1.4613 F       1  LIG1        0.0000
     54 F          13.8763    9.8536   -1.6865 F       1  LIG1        0.0000
     55 F          13.7800   11.9710    0.0273 F       1  LIG1        0.0000
     56 F          11.9163   11.9747    2.0153 F       1  LIG1        0.0000
     57 F          10.2630    9.9545    2.3170 F       1  LIG1        0.0000
@<TRIPOS>BOND
     1    42    39    1
     2    40    39    1
     3    39    41    1
     4    39    33    1
     5    32    30    1
     6    29    27    1
     7    36    35    1
     8    30    33    1
     9    30    27    1
    10    30    31    1
    11    33    34    1
    12    33     2    1
    13    54    18    1
    14    28    27    1
    15    27    24    1
    16    53    17    1
    17    35    38    1
    18    35    37    1
    19    35    22    1
    20     3     2    1
    21    18    17   ar
    22    18    19   ar
    23    17    16   ar
    24     2    22    1
    25     2     1    1
    26    24    25    1
    27    24    22    1
    28    24    26    1
    29    22    23    1
    30    52    15    1
    31    55    19    1
    32    19    20   ar
    33    47     9    1
    34    16     1    1
    35    16    21   ar
    36     1    10    1
    37     1     4    1
    38    15    10   ar
    39    15    14   ar
    40    51    14    1
    41    20    21   ar
    42    20    56    1
    43    21    57    1
    44    10    11   ar
    45    14    13   ar
    46     9     4   ar
    47     9     8   ar
    48     4     5   ar
    49    46     8    1
    50    11    48    1
    51    11    12   ar
    52    13    12   ar
    53    13    50    1
    54     8     7   ar
    55    12    49    1
    56     5    43    1
    57     5     6   ar
    58     7     6   ar
    59     7    45    1
    60     6    44    1
