@<TRIPOS>MOLECULE
?
 56 57 0 0 0
SMALL
GASTEIGER

@<TRIPOS>ATOM
      1 N           1.9633    2.4313    1.4776 N.2     1  LIG1       -0.2101
      2 H           2.2812    1.5504    1.6789 H       1  LIG1        0.4528
      3 C           2.8892    3.3535    1.7220 C.2     1  LIG1        0.1842
      4 C           4.1302    2.9761    2.2476 C.3     1  LIG1        0.2064
      5 C           4.5114    1.6165    2.5736 C.2     1  LIG1        0.0486
      6 N           3.6802    0.6513    2.3134 N.2     1  LIG1       -0.2546
      7 C           5.0574    4.0219    2.5465 C.1     1  LIG1        0.0883
      8 N           5.8084    4.8558    2.8017 N.1     1  LIG1       -0.1950
      9 C           5.8457    1.4099    3.2403 C.3     1  LIG1       -0.0241
     10 H           5.9006    0.5028    3.5790 H       1  LIG1        0.0290
     11 H           5.9396    2.0364    3.9759 H       1  LIG1        0.0290
     12 H           6.5556    1.5589    2.5959 H       1  LIG1        0.0290
     13 C           2.5755    4.7862    1.4217 C.3     1  LIG1        0.0185
     14 H           1.9972    4.8343    0.6444 H       1  LIG1        0.0333
     15 H           3.3989    5.2677    1.2431 H       1  LIG1        0.0333
     16 H           2.1264    5.1857    2.1835 H       1  LIG1        0.0333
     17 C           0.6342    2.6928    1.0115 C.ar    1  LIG1        0.2129
     18 C           0.3467    2.4866   -0.3414 C.ar    1  LIG1        0.0266
     19 C          -0.9520    2.7390   -0.7646 C.ar    1  LIG1       -0.0521
     20 H          -1.1766    2.6086   -1.6682 H       1  LIG1        0.0622
     21 C          -1.9149    3.1754    0.1165 C.ar    1  LIG1       -0.0608
     22 H          -2.7829    3.3575   -0.1951 H       1  LIG1        0.0618
     23 C          -1.6158    3.3483    1.4497 C.ar    1  LIG1       -0.0521
     24 H          -2.2860    3.6436    2.0389 H       1  LIG1        0.0622
     25 C          -0.3412    3.0927    1.9384 C.ar    1  LIG1        0.0266
     26 C           1.4154    1.9434   -1.2752 C.3     1  LIG1       -0.0153
     27 H           2.2660    2.3961   -1.0491 H       1  LIG1        0.0346
     28 C           1.1416    2.1952   -2.7464 C.3     1  LIG1       -0.0584
     29 H           0.3328    1.7293   -3.0094 H       1  LIG1        0.0235
     30 H           1.8877    1.8702   -3.2743 H       1  LIG1        0.0235
     31 H           1.0317    3.1472   -2.8968 H       1  LIG1        0.0235
     32 C           1.6195    0.4502   -1.0481 C.3     1  LIG1       -0.0584
     33 H           0.7915   -0.0210   -1.2305 H       1  LIG1        0.0235
     34 H           1.8832    0.2966   -0.1271 H       1  LIG1        0.0235
     35 H           2.3136    0.1241   -1.6420 H       1  LIG1        0.0235
     36 C          -0.0293    3.1554    3.4258 C.3     1  LIG1       -0.0153
     37 H           0.8993    3.4838    3.5256 H       1  LIG1        0.0346
     38 C          -0.0910    1.7438    4.0225 C.3     1  LIG1       -0.0584
     39 H          -0.9922    1.3948    3.9342 H       1  LIG1        0.0235
     40 H           0.1522    1.7776    4.9609 H       1  LIG1        0.0235
     41 H           0.5275    1.1655    3.5489 H       1  LIG1        0.0235
     42 C          -0.9386    4.0898    4.2108 C.3     1  LIG1       -0.0584
     43 H          -0.9042    4.9774    3.8216 H       1  LIG1        0.0235
     44 H          -0.6426    4.1296    5.1337 H       1  LIG1        0.0235
     45 H          -1.8499    3.7572    4.1778 H       1  LIG1        0.0235
     46 C           3.9669   -0.7104    2.5911 C.ar    1  LIG1        0.0639
     47 C           3.2136   -1.3636    3.5509 C.ar    1  LIG1       -0.0363
     48 H           2.5616   -0.8878    4.0332 H       1  LIG1        0.0639
     49 C           3.4105   -2.7012    3.8061 C.ar    1  LIG1       -0.0598
     50 H           2.8980   -3.1303    4.4679 H       1  LIG1        0.0618
     51 C           4.3483   -3.4143    3.1015 C.ar    1  LIG1       -0.0616
     52 H           4.4830   -4.3274    3.2801 H       1  LIG1        0.0618
     53 C           5.0926   -2.7784    2.1282 C.ar    1  LIG1       -0.0598
     54 H           5.7325   -3.2629    1.6401 H       1  LIG1        0.0618
     55 C           4.9057   -1.4320    1.8662 C.ar    1  LIG1       -0.0363
     56 H           5.4123   -1.0077    1.1985 H       1  LIG1        0.0639
@<TRIPOS>BOND
     1    30    28    1
     2    29    28    1
     3    31    28    1
     4    28    26    1
     5    20    19    1
     6    35    32    1
     7    26    27    1
     8    26    32    1
     9    26    18    1
    10    33    32    1
    11    32    34    1
    12    19    18   ar
    13    19    21   ar
    14    18    17   ar
    15    22    21    1
    16    21    23   ar
    17    14    13    1
    18    17     1    1
    19    17    25   ar
    20    56    55    1
    21    15    13    1
    22    13     3    1
    23    13    16    1
    24    23    25   ar
    25    23    24    1
    26     1     2    1
    27     1     3    2
    28    54    53    1
    29     3     4    1
    30    55    53   ar
    31    55    46   ar
    32    25    36    1
    33    53    51   ar
    34     4     7    1
    35     4     5    1
    36     6     5    2
    37     6    46    1
    38     7     8    3
    39     5     9    1
    40    46    47   ar
    41    12     9    1
    42    51    52    1
    43    51    49   ar
    44     9    10    1
    45     9    11    1
    46    36    37    1
    47    36    38    1
    48    36    42    1
    49    41    38    1
    50    47    49   ar
    51    47    48    1
    52    49    50    1
    53    43    42    1
    54    39    38    1
    55    38    40    1
    56    45    42    1
    57    42    44    1
