@<TRIPOS>MOLECULE
?
 117 121 0 0 0
SMALL
GASTEIGER

@<TRIPOS>ATOM
      1 P           9.7669    1.0276    3.6787 P.3     1  LIG1        1.0000
      2 B           8.6798   -3.1935    4.4278 B       1  LIG1        0.0000
      3 C          10.0086   -0.8287    3.5974 C.2     1  LIG1        0.0000
      4 C           9.1044   -1.5849    4.2629 C.2     1  LIG1        0.0000
      5 H           8.5476   -1.0423    4.7914 H       1  LIG1        0.0000
      6 C           9.3918   -4.2488    3.3803 C.2     1  LIG1        0.0000
      7 C          10.7001   -4.3311    3.1481 C.2     1  LIG1        0.0000
      8 H          11.0029   -4.9380    2.4978 H       1  LIG1        0.0000
      9 C          11.7073   -3.5034    3.8730 C.3     1  LIG1        0.0000
     10 H          12.4802   -4.0687    4.0824 H       1  LIG1        0.0000
     11 H          11.3162   -3.2140    4.7234 H       1  LIG1        0.0000
     12 C          12.2034   -2.2578    3.1142 C.3     1  LIG1        0.0000
     13 C          13.0883   -2.5920    1.9132 C.ar    1  LIG1        0.0000
     14 C          12.7554   -3.2518    0.7329 C.ar    1  LIG1        0.0000
     15 H          11.8817   -3.5701    0.5918 H       1  LIG1        0.0000
     16 C          13.7384   -3.4291   -0.2343 C.ar    1  LIG1        0.0000
     17 H          13.5296   -3.8812   -1.0324 H       1  LIG1        0.0000
     18 C          15.0284   -2.9465   -0.0355 C.ar    1  LIG1        0.0000
     19 H          15.6802   -3.0802   -0.6996 H       1  LIG1        0.0000
     20 C          15.3620   -2.2735    1.1234 C.ar    1  LIG1        0.0000
     21 H          16.2304   -1.9391    1.2499 H       1  LIG1        0.0000
     22 C          14.3867   -2.1014    2.1000 C.ar    1  LIG1        0.0000
     23 C          14.4656   -1.4814    3.4253 C.ar    1  LIG1        0.0000
     24 C          15.5446   -0.9379    4.1170 C.ar    1  LIG1        0.0000
     25 H          16.3890   -0.8722    3.7118 H       1  LIG1        0.0000
     26 C          15.3497   -0.4967    5.4107 C.ar    1  LIG1        0.0000
     27 H          16.0669   -0.1119    5.8806 H       1  LIG1        0.0000
     28 C          14.1120   -0.6111    6.0267 C.ar    1  LIG1        0.0000
     29 H          14.0015   -0.3140    6.9111 H       1  LIG1        0.0000
     30 C          13.0351   -1.1616    5.3453 C.ar    1  LIG1        0.0000
     31 H          12.2021   -1.2588    5.7709 H       1  LIG1        0.0000
     32 C          13.2029   -1.5659    4.0304 C.ar    1  LIG1        0.0000
     33 C          11.0038   -1.4061    2.5950 C.3     1  LIG1        0.0000
     34 H          11.3738   -0.6570    2.0837 H       1  LIG1        0.0000
     35 H          10.4981   -1.9609    1.9646 H       1  LIG1        0.0000
     36 C           8.0537    1.3362    2.8826 C.3     1  LIG1        0.0000
     37 C           7.9587    0.5325    1.5630 C.3     1  LIG1        0.0000
     38 H           7.0304    0.4695    1.2877 H       1  LIG1        0.0000
     39 H           8.3160   -0.3590    1.6999 H       1  LIG1        0.0000
     40 H           8.4694    0.9827    0.8717 H       1  LIG1        0.0000
     41 C           6.9252    0.8475    3.7938 C.3     1  LIG1        0.0000
     42 H           6.0691    1.0350    3.3771 H       1  LIG1        0.0000
     43 H           6.9768    1.3068    4.6458 H       1  LIG1        0.0000
     44 H           7.0139   -0.1076    3.9349 H       1  LIG1        0.0000
     45 C           7.7740    2.8179    2.5373 C.3     1  LIG1        0.0000
     46 H           6.8956    2.8956    2.1348 H       1  LIG1        0.0000
     47 H           8.4451    3.1369    1.9135 H       1  LIG1        0.0000
     48 H           7.8070    3.3506    3.3468 H       1  LIG1        0.0000
     49 C           9.7959    1.6771    5.4848 C.3     1  LIG1        0.0000
     50 C          11.2450    1.8752    5.9681 C.3     1  LIG1        0.0000
     51 H          11.2412    2.1208    6.9073 H       1  LIG1        0.0000
     52 H          11.6653    2.5802    5.4513 H       1  LIG1        0.0000
     53 H          11.7406    1.0495    5.8522 H       1  LIG1        0.0000
     54 C           9.0537    3.0163    5.6302 C.3     1  LIG1        0.0000
     55 H           9.1693    3.3535    6.5329 H       1  LIG1        0.0000
     56 H           8.1099    2.8825    5.4532 H       1  LIG1        0.0000
     57 H           9.4139    3.6559    4.9975 H       1  LIG1        0.0000
     58 C           9.1600    0.6876    6.4696 C.3     1  LIG1        0.0000
     59 H           9.1965    1.0553    7.3668 H       1  LIG1        0.0000
     60 H           9.6475   -0.1512    6.4440 H       1  LIG1        0.0000
     61 H           8.2356    0.5320    6.2209 H       1  LIG1        0.0000
     62 C          11.0952    1.9729    2.6769 C.3     1  LIG1        0.0000
     63 C          10.8848    1.8093    1.1544 C.3     1  LIG1        0.0000
     64 H          11.6549    2.1630    0.6826 H       1  LIG1        0.0000
     65 H          10.0886    2.2938    0.8849 H       1  LIG1        0.0000
     66 H          10.7783    0.8693    0.9416 H       1  LIG1        0.0000
     67 C          12.5287    1.4910    2.9968 C.3     1  LIG1        0.0000
     68 H          13.1673    2.1586    2.7020 H       1  LIG1        0.0000
     69 H          12.6984    0.6556    2.5356 H       1  LIG1        0.0000
     70 H          12.6189    1.3562    3.9538 H       1  LIG1        0.0000
     71 C          11.0438    3.4955    2.9577 C.3     1  LIG1        0.0000
     72 H          11.6545    3.9553    2.3598 H       1  LIG1        0.0000
     73 H          11.3024    3.6631    3.8781 H       1  LIG1        0.0000
     74 H          10.1427    3.8216    2.8098 H       1  LIG1        0.0000
     75 C           8.9928   -3.4814    6.0543 C.ar    1  LIG1        0.0000
     76 C           8.4051   -2.6883    7.0380 C.ar    1  LIG1        0.0000
     77 F           7.4523   -1.7736    6.7006 F       1  LIG1        0.0000
     78 C           8.6519   -2.7837    8.3878 C.ar    1  LIG1        0.0000
     79 F           8.0315   -1.9547    9.2544 F       1  LIG1        0.0000
     80 C           9.5235   -3.7329    8.8471 C.ar    1  LIG1        0.0000
     81 F           9.7784   -3.8395   10.1675 F       1  LIG1        0.0000
     82 C          10.1203   -4.5673    7.9460 C.ar    1  LIG1        0.0000
     83 F          10.9730   -5.5228    8.3697 F       1  LIG1        0.0000
     84 C           9.8460   -4.4340    6.5966 C.ar    1  LIG1        0.0000
     85 F          10.4793   -5.3312    5.8210 F       1  LIG1        0.0000
     86 C           7.0336   -3.2750    4.1502 C.ar    1  LIG1        0.0000
     87 C           6.5447   -2.9299    2.8945 C.ar    1  LIG1        0.0000
     88 F           7.4144   -2.5222    1.9379 F       1  LIG1        0.0000
     89 C           5.2205   -2.9974    2.5162 C.ar    1  LIG1        0.0000
     90 F           4.8433   -2.6501    1.2674 F       1  LIG1        0.0000
     91 C           4.2889   -3.4262    3.4162 C.ar    1  LIG1        0.0000
     92 F           2.9834   -3.4910    3.0872 F       1  LIG1        0.0000
     93 C           4.6988   -3.7809    4.6712 C.ar    1  LIG1        0.0000
     94 F           3.7934   -4.1846    5.5831 F       1  LIG1        0.0000
     95 C           6.0406   -3.7325    5.0008 C.ar    1  LIG1        0.0000
     96 F           6.3257   -4.1808    6.2400 F       1  LIG1        0.0000
     97 C           8.5763   -5.2384    2.5994 C.ar    1  LIG1        0.0000
     98 C           7.9000   -6.2755    3.2226 C.ar    1  LIG1        0.0000
     99 F           7.9386   -6.3652    4.5606 F       1  LIG1        0.0000
    100 C           7.2387   -7.2681    2.5262 C.ar    1  LIG1        0.0000
    101 F           6.6648   -8.2918    3.1738 F       1  LIG1        0.0000
    102 C           7.1940   -7.2129    1.1534 C.ar    1  LIG1        0.0000
    103 F           6.5530   -8.1739    0.4580 F       1  LIG1        0.0000
    104 C           7.8233   -6.1968    0.4964 C.ar    1  LIG1        0.0000
    105 F           7.7900   -6.1398   -0.8490 F       1  LIG1        0.0000
    106 C           8.5115   -5.2396    1.2119 C.ar    1  LIG1        0.0000
    107 F           9.1522   -4.2857    0.5043 F       1  LIG1        0.0000
    108 C           2.5354   -0.2500    1.7925 C.3     1  LIG1        0.0000
    109 H           2.6610   -1.1774    1.5032 H       1  LIG1        0.0000
    110 H           3.0132    0.3183    1.1534 H       1  LIG1        0.0000
    111 CL          3.2673   -0.0770    3.2674 Cl      1  LIG1        0.0000
    112 CL          0.8311    0.1236    1.6706 Cl      1  LIG1        0.0000
    113 C           2.9740   -7.0632    0.9492 C.3     2  LIG2        0.0000
    114 H           2.0257   -6.8292    1.0286 H       2  LIG2        0.0000
    115 H           3.0206   -7.9950    0.6505 H       2  LIG2        0.0000
    116 CL          3.6589   -6.0877   -0.2583 Cl      2  LIG2        0.0000
    117 CL          3.6666   -6.9739    2.4918 Cl      2  LIG2        0.0000
@<TRIPOS>BOND
     1    17    16    1
     2   105   104    1
     3    19    18    1
     4   116   113    1
     5    16    18   ar
     6    16    14   ar
     7    18    20   ar
     8   103   102    1
     9   104   102   ar
    10   104   106   ar
    11   107   106    1
    12    15    14    1
    13   115   113    1
    14    64    63    1
    15    14    13   ar
    16    40    37    1
    17    65    63    1
    18    66    63    1
    19   113   114    1
    20   113   117    1
    21    20    21    1
    22    20    22   ar
    23   110   108    1
    24   102   100   ar
    25    63    62    1
    26   106    97   ar
    27    90    89    1
    28    38    37    1
    29   109   108    1
    30    37    39    1
    31    37    36    1
    32   112   108    1
    33   108   111    1
    34    13    22   ar
    35    13    12    1
    36    47    45    1
    37    88    87    1
    38    35    33    1
    39    34    33    1
    40    22    23    1
    41    46    45    1
    42    72    71    1
    43     8     7    1
    44    89    87   ar
    45    89    91   ar
    46   100   101    1
    47   100    98   ar
    48    69    67    1
    49    45    36    1
    50    45    48    1
    51    33    12    1
    52    33     3    1
    53    97    98   ar
    54    97     6    1
    55    62    71    1
    56    62    67    1
    57    62     1    1
    58    68    67    1
    59    74    71    1
    60    36     1    1
    61    36    41    1
    62    87    86   ar
    63    71    73    1
    64    67    70    1
    65    92    91    1
    66    12     9    1
    67    12    32    1
    68     7     6    2
    69     7     9    1
    70    98    99    1
    71    42    41    1
    72     6     2    1
    73    91    93   ar
    74    23    32   ar
    75    23    24   ar
    76     3     1    1
    77     3     4    2
    78     1    49    1
    79    25    24    1
    80    41    44    1
    81    41    43    1
    82     9    10    1
    83     9    11    1
    84    32    30   ar
    85    24    26   ar
    86    86     2    1
    87    86    95   ar
    88     4     2    1
    89     4     5    1
    90     2    75    1
    91    93    95   ar
    92    93    94    1
    93    57    54    1
    94    95    96    1
    95    30    31    1
    96    30    28   ar
    97    26    27    1
    98    26    28   ar
    99    52    50    1
   100    56    54    1
   101    49    54    1
   102    49    50    1
   103    49    58    1
   104    54    55    1
   105    85    84    1
   106    53    50    1
   107    50    51    1
   108    28    29    1
   109    75    84   ar
   110    75    76   ar
   111    61    58    1
   112    60    58    1
   113    58    59    1
   114    84    82   ar
   115    77    76    1
   116    76    78   ar
   117    82    83    1
   118    82    80   ar
   119    78    80   ar
   120    78    79    1
   121    80    81    1
