@<TRIPOS>MOLECULE
?
 101 110 0 0 0
SMALL
GASTEIGER

@<TRIPOS>ATOM
      1 C           2.3688    3.1364    4.5071 C.3     1  LIG1        0.2154
      2 H           1.5401    3.0080    4.9936 H       1  LIG1        0.1210
      3 H           3.0726    2.7424    5.0451 H       1  LIG1        0.1210
      4 P           2.6857    4.9550    4.4520 P.3     1  LIG1        0.2102
      5 C           1.7217    5.6213    3.0855 C.ar    1  LIG1        0.1237
      6 C           2.2966    6.6011    2.2846 C.ar    1  LIG1       -0.0174
      7 H           3.1873    6.8374    2.4112 H       1  LIG1        0.0657
      8 C           1.5522    7.2285    1.2980 C.ar    1  LIG1       -0.0580
      9 H           1.9398    7.8890    0.7694 H       1  LIG1        0.0619
     10 C           0.2356    6.8700    1.1026 C.ar    1  LIG1       -0.0615
     11 H          -0.2643    7.2881    0.4392 H       1  LIG1        0.0618
     12 C          -0.3471    5.8844    1.8932 C.ar    1  LIG1       -0.0580
     13 H          -1.2330    5.6396    1.7524 H       1  LIG1        0.0619
     14 C           0.3943    5.2669    2.8909 C.ar    1  LIG1       -0.0174
     15 H           0.0023    4.6160    3.4275 H       1  LIG1        0.0657
     16 C           1.7676    5.5722    5.9148 C.ar    1  LIG1        0.1237
     17 C           1.2793    6.8765    5.8769 C.ar    1  LIG1       -0.0174
     18 H           1.3425    7.3672    5.0890 H       1  LIG1        0.0657
     19 C           0.7035    7.4512    6.9910 C.ar    1  LIG1       -0.0580
     20 H           0.3844    8.3246    6.9489 H       1  LIG1        0.0619
     21 C           0.5988    6.7316    8.1767 C.ar    1  LIG1       -0.0615
     22 H           0.2108    7.1183    8.9285 H       1  LIG1        0.0618
     23 C           1.0768    5.4387    8.2288 C.ar    1  LIG1       -0.0580
     24 H           1.0092    4.9550    9.0209 H       1  LIG1        0.0619
     25 C           1.6564    4.8505    7.1142 C.ar    1  LIG1       -0.0174
     26 H           1.9711    3.9775    7.1610 H       1  LIG1        0.0657
     27 N           4.1377    5.4685    4.2857 N.3     1  LIG1       -0.0602
     28 C           5.3318    5.4378    5.1154 C.3     1  LIG1        0.0772
     29 C           5.1558    6.1643    6.4730 C.3     1  LIG1       -0.0267
     30 H           4.8701    7.0785    6.3173 H       1  LIG1        0.0287
     31 H           4.4683    5.7187    6.9929 H       1  LIG1        0.0287
     32 C           5.8036    4.0016    5.4201 C.3     1  LIG1       -0.0267
     33 H           5.1244    3.5443    5.9402 H       1  LIG1        0.0287
     34 H           5.9179    3.5183    4.5862 H       1  LIG1        0.0287
     35 C           6.4503    6.1465    4.3270 C.3     1  LIG1       -0.0267
     36 H           6.5840    5.6913    3.4805 H       1  LIG1        0.0287
     37 H           6.1793    7.0579    4.1363 H       1  LIG1        0.0287
     38 C           6.4777    6.1656    7.2618 C.3     1  LIG1       -0.0387
     39 H           6.3496    6.6291    8.1152 H       1  LIG1        0.0302
     40 C           7.5616    6.8876    6.4429 C.3     1  LIG1       -0.0472
     41 H           7.2916    7.8044    6.2780 H       1  LIG1        0.0271
     42 H           8.3934    6.9029    6.9414 H       1  LIG1        0.0271
     43 C           7.7723    6.1626    5.1083 C.3     1  LIG1       -0.0387
     44 H           8.4602    6.6256    4.5847 H       1  LIG1        0.0302
     45 C           8.2111    4.7187    5.3772 C.3     1  LIG1       -0.0472
     46 H           9.0494    4.7176    5.8645 H       1  LIG1        0.0271
     47 H           8.3479    4.2567    4.5362 H       1  LIG1        0.0271
     48 C           7.1311    3.9935    6.1983 C.3     1  LIG1       -0.0387
     49 H           7.4095    3.0695    6.3688 H       1  LIG1        0.0302
     50 C           6.9279    4.7243    7.5230 C.3     1  LIG1       -0.0472
     51 H           7.7583    4.7286    8.0243 H       1  LIG1        0.0271
     52 H           6.2570    4.2646    8.0500 H       1  LIG1        0.0271
     53 P           2.2460    2.1272    2.9497 P.3     1  LIG1        0.2102
     54 C           3.1118    0.5917    3.4195 C.ar    1  LIG1        0.1237
     55 C           3.7653   -0.1553    2.4341 C.ar    1  LIG1       -0.0174
     56 H           3.8640    0.1930    1.5767 H       1  LIG1        0.0657
     57 C           4.2699   -1.4160    2.7322 C.ar    1  LIG1       -0.0580
     58 H           4.7154   -1.9027    2.0780 H       1  LIG1        0.0619
     59 C           4.1092   -1.9522    4.0046 C.ar    1  LIG1       -0.0615
     60 H           4.4369   -2.8010    4.1969 H       1  LIG1        0.0618
     61 C           3.4620   -1.2195    4.9860 C.ar    1  LIG1       -0.0580
     62 H           3.3563   -1.5770    5.8387 H       1  LIG1        0.0619
     63 C           2.9714    0.0444    4.6998 C.ar    1  LIG1       -0.0174
     64 H           2.5451    0.5337    5.3662 H       1  LIG1        0.0657
     65 C           3.2970    2.9143    1.7066 C.ar    1  LIG1        0.1237
     66 C           2.6960    3.3707    0.5410 C.ar    1  LIG1       -0.0174
     67 H           1.7753    3.2922    0.4317 H       1  LIG1        0.0657
     68 C           3.4646    3.9421   -0.4592 C.ar    1  LIG1       -0.0580
     69 H           3.0611    4.2426   -1.2420 H       1  LIG1        0.0619
     70 C           4.8310    4.0648   -0.2946 C.ar    1  LIG1       -0.0615
     71 H           5.3456    4.4557   -0.9633 H       1  LIG1        0.0618
     72 C           5.4343    3.6055    0.8621 C.ar    1  LIG1       -0.0580
     73 H           6.3547    3.6864    0.9678 H       1  LIG1        0.0619
     74 C           4.6694    3.0263    1.8655 C.ar    1  LIG1       -0.0174
     75 H           5.0760    2.7136    2.6414 H       1  LIG1        0.0657
     76 N           0.8459    1.9756    2.3166 N.3     1  LIG1       -0.0602
     77 C          -0.2923    1.1203    2.6260 C.3     1  LIG1        0.0772
     78 C          -0.6807    1.1219    4.1162 C.3     1  LIG1       -0.0267
     79 H           0.0581    0.7804    4.6437 H       1  LIG1        0.0287
     80 H          -0.8601    2.0313    4.4029 H       1  LIG1        0.0287
     81 C          -1.4874    1.6460    1.8213 C.3     1  LIG1       -0.0267
     82 H          -1.2660    1.6437    0.8769 H       1  LIG1        0.0287
     83 H          -1.6730    2.5620    2.0826 H       1  LIG1        0.0287
     84 C          -0.0327   -0.3373    2.2012 C.3     1  LIG1       -0.0267
     85 H           0.2083   -0.3614    1.2617 H       1  LIG1        0.0287
     86 H           0.7104   -0.6952    2.7111 H       1  LIG1        0.0287
     87 C          -1.2805   -1.2088    2.4324 C.3     1  LIG1       -0.0387
     88 H          -1.0946   -2.1294    2.1537 H       1  LIG1        0.0302
     89 C          -2.4516   -0.6528    1.6202 C.3     1  LIG1       -0.0472
     90 H          -2.2340   -0.6728    0.6755 H       1  LIG1        0.0271
     91 H          -3.2385   -1.2025    1.7615 H       1  LIG1        0.0271
     92 C          -2.7410    0.7850    2.0535 C.3     1  LIG1       -0.0387
     93 H          -3.4885    1.1425    1.5312 H       1  LIG1        0.0302
     94 C          -3.0951    0.8051    3.5455 C.3     1  LIG1       -0.0472
     95 H          -3.2881    1.7140    3.8243 H       1  LIG1        0.0271
     96 H          -3.8860    0.2661    3.7017 H       1  LIG1        0.0271
     97 C          -1.9266    0.2538    4.3590 C.3     1  LIG1       -0.0387
     98 H          -2.1556    0.2700    5.3117 H       1  LIG1        0.0302
     99 C          -1.6429   -1.1825    3.9311 C.3     1  LIG1       -0.0472
    100 H          -2.4242   -1.7334    4.0894 H       1  LIG1        0.0271
    101 H          -0.9079   -1.5409    4.4529 H       1  LIG1        0.0271
@<TRIPOS>BOND
     1    69    68    1
     2    71    70    1
     3    68    70   ar
     4    68    66   ar
     5    70    72   ar
     6    67    66    1
     7    11    10    1
     8    66    65   ar
     9    90    89    1
    10     9     8    1
    11    72    73    1
    12    72    74   ar
    13    82    81    1
    14    10     8   ar
    15    10    12   ar
    16    85    84    1
    17     8     6   ar
    18    93    92    1
    19    56    55    1
    20    89    91    1
    21    89    92    1
    22    89    87    1
    23    65    74   ar
    24    65    53    1
    25    13    12    1
    26    81    92    1
    27    81    83    1
    28    81    77    1
    29    74    75    1
    30    12    14   ar
    31    92    94    1
    32    58    57    1
    33    88    87    1
    34    84    87    1
    35    84    77    1
    36    84    86    1
    37     6     7    1
    38     6     5   ar
    39    76    77    1
    40    76    53    1
    41    87    99    1
    42    55    57   ar
    43    55    54   ar
    44    77    78    1
    45    57    59   ar
    46    14     5   ar
    47    14    15    1
    48    53    54    1
    49    53     1    1
    50     5     4    1
    51    54    63   ar
    52    36    35    1
    53    94    96    1
    54    94    95    1
    55    94    97    1
    56    99   100    1
    57    99    97    1
    58    99   101    1
    59    59    60    1
    60    59    61   ar
    61    78    97    1
    62    78    80    1
    63    78    79    1
    64    37    35    1
    65    27     4    1
    66    27    28    1
    67    35    43    1
    68    35    28    1
    69    97    98    1
    70     4     1    1
    71     4    16    1
    72     1     2    1
    73     1     3    1
    74    47    45    1
    75    44    43    1
    76    34    32    1
    77    63    61   ar
    78    63    64    1
    79    61    62    1
    80    18    17    1
    81    43    45    1
    82    43    40    1
    83    28    32    1
    84    28    29    1
    85    45    46    1
    86    45    48    1
    87    32    33    1
    88    32    48    1
    89    17    16   ar
    90    17    19   ar
    91    16    25   ar
    92    48    49    1
    93    48    50    1
    94    41    40    1
    95    30    29    1
    96    40    42    1
    97    40    38    1
    98    29    31    1
    99    29    38    1
   100    20    19    1
   101    19    21   ar
   102    25    26    1
   103    25    23   ar
   104    38    50    1
   105    38    39    1
   106    50    51    1
   107    50    52    1
   108    21    23   ar
   109    21    22    1
   110    23    24    1
