@<TRIPOS>MOLECULE
4066664.cif
 86 91 0 0 0
SMALL
GASTEIGER

@<TRIPOS>ATOM
      1 P           9.9386    0.8874    2.4171 P.3     1  LIG1        1.0000
      2 C           9.7323    0.9101    0.6011 C.ar    1  LIG1        0.0000
      3 C           9.5356   -0.2722   -0.1022 C.ar    1  LIG1        0.0000
      4 H           9.4128   -1.0858    0.3722 H       1  LIG1        0.0000
      5 C           9.5157   -0.2806   -1.4976 C.ar    1  LIG1        0.0000
      6 C           9.7279    0.9204   -2.1657 C.ar    1  LIG1        0.0000
      7 H           9.7317    0.9227   -3.1164 H       1  LIG1        0.0000
      8 C           9.9339    2.1148   -1.4918 C.ar    1  LIG1        0.0000
      9 C           9.9287    2.0967   -0.0956 C.ar    1  LIG1        0.0000
     10 H          10.0616    2.9052    0.3844 H       1  LIG1        0.0000
     11 C           9.2868   -1.5628   -2.2525 C.3     1  LIG1        0.0000
     12 H           8.6744   -1.3970   -2.9996 H       1  LIG1        0.0000
     13 H           8.8952   -2.2308   -1.6519 H       1  LIG1        0.0000
     14 H          10.1414   -1.8948   -2.5982 H       1  LIG1        0.0000
     15 C          10.1879    3.3961   -2.2399 C.3     1  LIG1        0.0000
     16 H          10.5510    3.1906   -3.1261 H       1  LIG1        0.0000
     17 H          10.8307    3.9428   -1.7419 H       1  LIG1        0.0000
     18 H           9.3465    3.8897   -2.3379 H       1  LIG1        0.0000
     19 C          11.6994    0.4273    2.6150 C.ar    1  LIG1        0.0000
     20 C          12.2436    0.2146    3.8757 C.ar    1  LIG1        0.0000
     21 H          11.6991    0.3347    4.6442 H       1  LIG1        0.0000
     22 C          13.5736   -0.1714    4.0326 C.ar    1  LIG1        0.0000
     23 C          14.3485   -0.3271    2.9016 C.ar    1  LIG1        0.0000
     24 H          15.2525   -0.6016    2.9996 H       1  LIG1        0.0000
     25 C          13.8492   -0.0955    1.6251 C.ar    1  LIG1        0.0000
     26 C          12.5168    0.2716    1.4908 C.ar    1  LIG1        0.0000
     27 H          12.1554    0.4187    0.6252 H       1  LIG1        0.0000
     28 C          14.1263   -0.4418    5.4037 C.3     1  LIG1        0.0000
     29 H          13.7671   -1.2896    5.7390 H       1  LIG1        0.0000
     30 H          13.8689    0.2853    6.0090 H       1  LIG1        0.0000
     31 H          15.1041   -0.4978    5.3570 H       1  LIG1        0.0000
     32 C          14.7168   -0.2458    0.3990 C.3     1  LIG1        0.0000
     33 H          15.3237    0.5200    0.3309 H       1  LIG1        0.0000
     34 H          14.1498   -0.2841   -0.3990 H       1  LIG1        0.0000
     35 H          15.2403   -1.0722    0.4671 H       1  LIG1        0.0000
     36 C           9.8631    2.6483    2.8860 C.ar    1  LIG1        0.0000
     37 C           8.6344    3.3051    2.9992 C.ar    1  LIG1        0.0000
     38 H           7.8280    2.8151    2.8877 H       1  LIG1        0.0000
     39 C           8.5783    4.6749    3.2753 C.ar    1  LIG1        0.0000
     40 C           9.7708    5.3715    3.3986 C.ar    1  LIG1        0.0000
     41 H           9.7415    6.3070    3.5641 H       1  LIG1        0.0000
     42 C          11.0082    4.7462    3.2889 C.ar    1  LIG1        0.0000
     43 C          11.0397    3.3808    3.0400 C.ar    1  LIG1        0.0000
     44 H          11.8770    2.9374    2.9729 H       1  LIG1        0.0000
     45 C           7.2474    5.3657    3.4329 C.3     1  LIG1        0.0000
     46 H           6.9424    5.2793    4.3596 H       1  LIG1        0.0000
     47 H           6.5916    4.9520    2.8342 H       1  LIG1        0.0000
     48 H           7.3435    6.3144    3.2064 H       1  LIG1        0.0000
     49 C          12.2944    5.5249    3.4366 C.3     1  LIG1        0.0000
     50 H          12.1910    6.4071    3.0240 H       1  LIG1        0.0000
     51 H          13.0226    5.0409    2.9948 H       1  LIG1        0.0000
     52 H          12.5038    5.6326    4.3888 H       1  LIG1        0.0000
     53 B           8.5688   -0.4003    3.5047 B       1  LIG1        0.0000
     54 C           7.5863   -1.0441    2.3722 C.ar    1  LIG1        0.0000
     55 C           6.9080   -0.2531    1.4648 C.ar    1  LIG1        0.0000
     56 F           7.0171    1.0995    1.5694 F       1  LIG1        0.0000
     57 C           6.1280   -0.7311    0.4428 C.ar    1  LIG1        0.0000
     58 F           5.5638    0.1517   -0.4133 F       1  LIG1        0.0000
     59 C           5.9259   -2.0789    0.2820 C.ar    1  LIG1        0.0000
     60 H           5.3994   -2.4235   -0.4306 H       1  LIG1        0.0000
     61 C           6.5212   -2.9008    1.2001 C.ar    1  LIG1        0.0000
     62 F           6.3158   -4.2352    1.1393 F       1  LIG1        0.0000
     63 C           7.3305   -2.4072    2.2039 C.ar    1  LIG1        0.0000
     64 F           7.8453   -3.3272    3.0597 F       1  LIG1        0.0000
     65 C           9.5277   -1.5024    4.2304 C.ar    1  LIG1        0.0000
     66 C          10.4698   -2.2252    3.5096 C.ar    1  LIG1        0.0000
     67 F          10.4847   -2.1063    2.1596 F       1  LIG1        0.0000
     68 C          11.4269   -3.0295    4.0710 C.ar    1  LIG1        0.0000
     69 F          12.3655   -3.5788    3.2677 F       1  LIG1        0.0000
     70 C          11.4433   -3.2762    5.4191 C.ar    1  LIG1        0.0000
     71 H          12.1002   -3.8354    5.8168 H       1  LIG1        0.0000
     72 C          10.4621   -2.6731    6.1620 C.ar    1  LIG1        0.0000
     73 F          10.3756   -2.9285    7.4816 F       1  LIG1        0.0000
     74 C           9.5433   -1.8168    5.5898 C.ar    1  LIG1        0.0000
     75 F           8.6156   -1.2872    6.4309 F       1  LIG1        0.0000
     76 C           7.7844    0.5722    4.5615 C.ar    1  LIG1        0.0000
     77 C           8.4676    1.3948    5.4524 C.ar    1  LIG1        0.0000
     78 F           9.8277    1.3207    5.4933 F       1  LIG1        0.0000
     79 C           7.8794    2.2878    6.3119 C.ar    1  LIG1        0.0000
     80 F           8.6583    3.0608    7.0955 F       1  LIG1        0.0000
     81 C           6.5086    2.4037    6.3674 C.ar    1  LIG1        0.0000
     82 H           6.0838    3.0263    6.9456 H       1  LIG1        0.0000
     83 C           5.7888    1.5785    5.5480 C.ar    1  LIG1        0.0000
     84 F           4.4345    1.6188    5.5881 F       1  LIG1        0.0000
     85 C           6.4004    0.6932    4.6829 C.ar    1  LIG1        0.0000
     86 F           5.5678   -0.0941    3.9582 F       1  LIG1        0.0000
@<TRIPOS>BOND
     1    16    15    1
     2     7     6    1
     3    12    11    1
     4    14    11    1
     5    18    15    1
     6    11    13    1
     7    11     5    1
     8    15    17    1
     9    15     8    1
    10     6     5   ar
    11     6     8   ar
    12     5     3   ar
    13     8     9   ar
    14    60    59    1
    15    58    57    1
    16    34    32    1
    17     3     4    1
    18     3     2   ar
    19     9    10    1
    20     9     2   ar
    21    59    57   ar
    22    59    61   ar
    23    33    32    1
    24    32    35    1
    25    32    25    1
    26    57    55   ar
    27     2     1    1
    28    27    26    1
    29    62    61    1
    30    61    63   ar
    31    55    56    1
    32    55    54   ar
    33    26    25   ar
    34    26    19   ar
    35    25    23   ar
    36    67    66    1
    37    63    54   ar
    38    63    64    1
    39    54    53    1
    40     1    19    1
    41     1    36    1
    42     1    53    1
    43    19    20   ar
    44    47    45    1
    45    36    37   ar
    46    36    43   ar
    47    38    37    1
    48    23    24    1
    49    23    22   ar
    50    44    43    1
    51    51    49    1
    52    37    39   ar
    53    50    49    1
    54    43    42   ar
    55    48    45    1
    56    69    68    1
    57    39    40   ar
    58    39    45    1
    59    42    40   ar
    60    42    49    1
    61    40    41    1
    62    45    46    1
    63    49    52    1
    64    53    65    1
    65    53    76    1
    66    66    68   ar
    67    66    65   ar
    68    20    22   ar
    69    20    21    1
    70    86    85    1
    71    22    28    1
    72    68    70   ar
    73    65    74   ar
    74    76    85   ar
    75    76    77   ar
    76    85    83   ar
    77    31    28    1
    78    28    29    1
    79    28    30    1
    80    70    71    1
    81    70    72   ar
    82    77    78    1
    83    77    79   ar
    84    83    84    1
    85    83    81   ar
    86    74    72   ar
    87    74    75    1
    88    72    73    1
    89    79    81   ar
    90    79    80    1
    91    81    82    1
