@<TRIPOS>MOLECULE
?
 44 44 0 0 0
SMALL
GASTEIGER

@<TRIPOS>ATOM
      1 C           6.8670    4.5931    4.7157 C.2     1  LIG1        0.2226
      2 C           9.7883    5.3517    7.2074 C.2     1  LIG1        0.2226
      3 C           7.7422    3.0657    6.4132 C.ar    1  LIG1        0.0548
      4 C           7.3961    1.8113    5.9218 C.ar    1  LIG1       -0.0387
      5 H           6.7419    1.7352    5.2655 H       1  LIG1        0.0637
      6 C           8.0219    0.6802    6.4052 C.ar    1  LIG1       -0.0599
      7 H           7.7864   -0.1569    6.0754 H       1  LIG1        0.0618
      8 C           8.9984    0.7877    7.3814 C.ar    1  LIG1       -0.0599
      9 H           9.4169    0.0232    7.7084 H       1  LIG1        0.0618
     10 C           9.3488    2.0280    7.8664 C.ar    1  LIG1       -0.0387
     11 H          10.0049    2.0972    8.5220 H       1  LIG1        0.0637
     12 C           8.7329    3.1734    7.3864 C.ar    1  LIG1        0.0548
     13 C           6.1152    5.9107    4.4875 C.3     1  LIG1        0.0389
     14 C           5.6068    5.9618    3.0487 C.3     1  LIG1       -0.0517
     15 H           6.3460    5.8617    2.4447 H       1  LIG1        0.0239
     16 H           5.1768    6.8051    2.8908 H       1  LIG1        0.0239
     17 H           4.9781    5.2500    2.9059 H       1  LIG1        0.0239
     18 C           7.1151    7.0501    4.7231 C.3     1  LIG1       -0.0517
     19 H           7.4273    7.0191    5.6303 H       1  LIG1        0.0239
     20 H           6.6832    7.8929    4.5625 H       1  LIG1        0.0239
     21 H           7.8589    6.9513    4.1249 H       1  LIG1        0.0239
     22 C           4.9259    6.0728    5.4366 C.3     1  LIG1       -0.0517
     23 H           5.2351    6.0472    6.3447 H       1  LIG1        0.0239
     24 H           4.3008    5.3588    5.2911 H       1  LIG1        0.0239
     25 H           4.4945    6.9139    5.2684 H       1  LIG1        0.0239
     26 C          10.1442    6.6592    7.9382 C.3     1  LIG1        0.0389
     27 C          11.3793    6.4144    8.7677 C.3     1  LIG1       -0.0517
     28 H          11.1881    5.7565    9.4396 H       1  LIG1        0.0239
     29 H          11.6492    7.2331    9.1892 H       1  LIG1        0.0239
     30 H          12.0867    6.0971    8.2017 H       1  LIG1        0.0239
     31 C           8.9939    7.1492    8.7781 C.3     1  LIG1       -0.0517
     32 H           8.2302    7.3008    8.2168 H       1  LIG1        0.0239
     33 H           9.2409    7.9696    9.2119 H       1  LIG1        0.0239
     34 H           8.7783    6.4894    9.4406 H       1  LIG1        0.0239
     35 C          10.4799    7.7138    6.9032 C.3     1  LIG1       -0.0517
     36 H           9.7087    7.8822    6.3570 H       1  LIG1        0.0239
     37 H          11.2018    7.4025    6.3523 H       1  LIG1        0.0239
     38 H          10.7421    8.5242    7.3464 H       1  LIG1        0.0239
     39 O           7.3240    3.9284    3.7907 O.2     1  LIG1       -0.2749
     40 O          10.1329    5.1414    6.0549 O.2     1  LIG1       -0.2749
     41 N           7.0441    4.2239    5.9983 N.am    1  LIG1       -0.2835
     42 N           9.0932    4.4411    7.9177 N.am    1  LIG1       -0.2835
     43 H           6.7318    4.6972    6.6245 H       1  LIG1        0.1549
     44 H           9.0010    4.5528    8.7318 H       1  LIG1        0.1549
@<TRIPOS>BOND
     1    15    14    1
     2    16    14    1
     3    17    14    1
     4    14    13    1
     5    39     1    2
     6    21    18    1
     7    13     1    1
     8    13    18    1
     9    13    22    1
    10    20    18    1
    11     1    41   am
    12    18    19    1
    13     5     4    1
    14    25    22    1
    15    24    22    1
    16    22    23    1
    17     4     6   ar
    18     4     3   ar
    19    41     3    1
    20    41    43    1
    21    40     2    2
    22     7     6    1
    23    37    35    1
    24    36    35    1
    25     6     8   ar
    26     3    12   ar
    27    35    38    1
    28    35    26    1
    29     2    42   am
    30     2    26    1
    31     8     9    1
    32     8    10   ar
    33    12    10   ar
    34    12    42    1
    35    10    11    1
    36    42    44    1
    37    26    27    1
    38    26    31    1
    39    30    27    1
    40    32    31    1
    41    27    29    1
    42    27    28    1
    43    31    33    1
    44    31    34    1
