@<TRIPOS>MOLECULE
?
 59 61 0 0 0
SMALL
GASTEIGER

@<TRIPOS>ATOM
      1 P           7.0931    3.3480    8.9423 P.3     1  LIG1        1.0000
      2 B           4.3190    3.4535    8.5670 B       1  LIG1        0.0000
      3 O           3.3992    3.5742    7.3696 O.3     1  LIG1        0.0000
      4 O           4.8142    2.7204    5.8482 O.2     1  LIG1        0.0000
      5 C           5.7074    4.3368    8.3665 C.3     1  LIG1        0.0000
      6 H           5.6524    5.1778    8.8852 H       1  LIG1        0.0000
      7 H           5.8287    4.5665    7.4117 H       1  LIG1        0.0000
      8 C           3.7298    3.1855    6.1592 C.2     1  LIG1        0.0000
      9 C           2.6101    3.3588    5.1739 C.3     1  LIG1        0.0000
     10 H           2.9789    3.4299    4.2689 H       1  LIG1        0.0000
     11 H           2.1101    4.1751    5.3878 H       1  LIG1        0.0000
     12 H           2.0093    2.5868    5.2225 H       1  LIG1        0.0000
     13 C           8.4872    3.3398    7.7008 C.3     1  LIG1        0.0000
     14 C           8.0766    2.4058    6.5564 C.3     1  LIG1        0.0000
     15 H           7.2224    2.7047    6.1798 H       1  LIG1        0.0000
     16 H           7.9805    1.4922    6.8978 H       1  LIG1        0.0000
     17 H           8.7642    2.4219    5.8579 H       1  LIG1        0.0000
     18 C           9.8289    2.8712    8.2790 C.3     1  LIG1        0.0000
     19 H          10.0968    3.4693    9.0092 H       1  LIG1        0.0000
     20 H          10.5121    2.8878    7.5769 H       1  LIG1        0.0000
     21 H           9.7361    1.9579    8.6228 H       1  LIG1        0.0000
     22 C           8.6645    4.7728    7.1456 C.3     1  LIG1        0.0000
     23 H           8.9280    5.3746    7.8733 H       1  LIG1        0.0000
     24 H           7.8180    5.0794    6.7581 H       1  LIG1        0.0000
     25 H           9.3588    4.7720    6.4544 H       1  LIG1        0.0000
     26 C           7.5815    3.8440   10.6650 C.3     1  LIG1        0.0000
     27 C           8.4933    2.8108   11.3404 C.3     1  LIG1        0.0000
     28 H           9.3203    2.7183   10.8229 H       1  LIG1        0.0000
     29 H           8.0342    1.9463   11.3793 H       1  LIG1        0.0000
     30 H           8.7071    3.1094   12.2491 H       1  LIG1        0.0000
     31 C           8.2598    5.2244   10.6079 C.3     1  LIG1        0.0000
     32 H           7.6562    5.8675   10.1815 H       1  LIG1        0.0000
     33 H           9.0876    5.1591   10.0867 H       1  LIG1        0.0000
     34 H           8.4689    5.5239   11.5166 H       1  LIG1        0.0000
     35 C           6.2943    3.9655   11.4898 C.3     1  LIG1        0.0000
     36 H           5.7001    4.6249   11.0744 H       1  LIG1        0.0000
     37 H           6.5162    4.2535   12.4010 H       1  LIG1        0.0000
     38 H           5.8434    3.0964   11.5238 H       1  LIG1        0.0000
     39 C           4.8489    1.9155    8.7783 C.ar    1  LIG1        0.0000
     40 C           6.2334    1.7667    8.9958 C.ar    1  LIG1        0.0000
     41 C           6.7764    0.5014    9.1817 C.ar    1  LIG1        0.0000
     42 C           5.9951   -0.6061    9.1489 C.ar    1  LIG1        0.0000
     43 C           4.6396   -0.4883    8.9217 C.ar    1  LIG1        0.0000
     44 C           4.0906    0.7693    8.7382 C.ar    1  LIG1        0.0000
     45 F           8.1089    0.3387    9.3856 F       1  LIG1        0.0000
     46 F           6.5194   -1.8382    9.3232 F       1  LIG1        0.0000
     47 F           3.8723   -1.5861    8.8833 F       1  LIG1        0.0000
     48 F           2.7588    0.8461    8.5283 F       1  LIG1        0.0000
     49 C           3.3865    4.0431    9.7842 C.ar    1  LIG1        0.0000
     50 C           3.0251    3.4095   10.9638 C.ar    1  LIG1        0.0000
     51 C           2.2410    3.9677   11.9503 C.ar    1  LIG1        0.0000
     52 C           1.7676    5.2436   11.7705 C.ar    1  LIG1        0.0000
     53 C           2.0806    5.9304   10.6273 C.ar    1  LIG1        0.0000
     54 C           2.8844    5.3422    9.6882 C.ar    1  LIG1        0.0000
     55 F           3.4698    2.1477   11.2220 F       1  LIG1        0.0000
     56 F           1.9613    3.3084   13.0838 F       1  LIG1        0.0000
     57 F           0.9927    5.8130   12.7269 F       1  LIG1        0.0000
     58 F           1.6253    7.1928   10.4614 F       1  LIG1        0.0000
     59 F           3.2088    6.0866    8.6016 F       1  LIG1        0.0000
@<TRIPOS>BOND
     1    10     9    1
     2     9    12    1
     3     9    11    1
     4     9     8    1
     5     4     8    2
     6    17    14    1
     7     8     3    1
     8    15    14    1
     9    25    22    1
    10    14    16    1
    11    14    13    1
    12    24    22    1
    13    22    13    1
    14    22    23    1
    15     3     2    1
    16     7     5    1
    17    20    18    1
    18    13    18    1
    19    13     1    1
    20    18    21    1
    21    18    19    1
    22     5     2    1
    23     5     6    1
    24     5     1    1
    25    48    44    1
    26     2    39    1
    27     2    49    1
    28    59    54    1
    29    44    39   ar
    30    44    43   ar
    31    39    40   ar
    32    47    43    1
    33    43    42   ar
    34     1    40    1
    35     1    26    1
    36    40    41   ar
    37    42    41   ar
    38    42    46    1
    39    41    45    1
    40    54    49   ar
    41    54    53   ar
    42    49    50   ar
    43    33    31    1
    44    32    31    1
    45    58    53    1
    46    31    26    1
    47    31    34    1
    48    53    52   ar
    49    26    27    1
    50    26    35    1
    51    28    27    1
    52    50    55    1
    53    50    51   ar
    54    36    35    1
    55    27    29    1
    56    27    30    1
    57    35    38    1
    58    35    37    1
    59    52    51   ar
    60    52    57    1
    61    51    56    1
