@<TRIPOS>MOLECULE
?
 25 26 0 0 0
SMALL
GASTEIGER

@<TRIPOS>ATOM
      1 F          -0.6840    3.3104    6.9600 F       1  LIG1       -0.2024
      2 F          -4.5272    0.5971    6.8749 F       1  LIG1       -0.2024
      3 F          -1.5200    4.4549    9.2023 F       1  LIG1       -0.2018
      4 F          -5.3969    1.7288    9.1077 F       1  LIG1       -0.2018
      5 N          -5.4760    6.5323   14.6086 N.ar    1  LIG1       -0.2632
      6 C          -2.5852    1.9297    6.8534 C.ar    1  LIG1        0.0146
      7 H          -2.2765    1.5197    6.0533 H       1  LIG1        0.0677
      8 C          -3.7743    1.5687    7.4316 C.ar    1  LIG1        0.1619
      9 C          -1.8600    2.9093    7.4831 C.ar    1  LIG1        0.1619
     10 C          -4.2259    2.1640    8.5868 C.ar    1  LIG1        0.1684
     11 C          -2.3024    3.5097    8.6457 C.ar    1  LIG1        0.1684
     12 C          -3.5153    3.1697    9.2415 C.ar    1  LIG1        0.0511
     13 C          -4.1101    3.7613   10.4386 C.2     1  LIG1       -0.0483
     14 H          -4.9317    3.3826   10.7280 H       1  LIG1        0.0625
     15 C          -3.6422    4.7629   11.1686 C.2     1  LIG1       -0.0538
     16 H          -2.8144    5.1495   10.9071 H       1  LIG1        0.0624
     17 C          -4.3120    5.3215   12.3539 C.ar    1  LIG1       -0.0222
     18 C          -5.5481    4.9009   12.8459 C.ar    1  LIG1       -0.0364
     19 H          -6.0186    4.1928   12.4217 H       1  LIG1        0.0639
     20 C          -3.6860    6.3511   13.0323 C.ar    1  LIG1       -0.0364
     21 H          -2.8408    6.6713   12.7389 H       1  LIG1        0.0639
     22 C          -6.0819    5.5306   13.9621 C.ar    1  LIG1        0.0281
     23 H          -6.9248    5.2327   14.2854 H       1  LIG1        0.0830
     24 C          -4.2950    6.9111   14.1361 C.ar    1  LIG1        0.0281
     25 H          -3.8400    7.6125   14.5871 H       1  LIG1        0.0830
@<TRIPOS>BOND
     1     7     6    1
     2     6     8   ar
     3     6     9   ar
     4     2     8    1
     5     1     9    1
     6     8    10   ar
     7     9    11   ar
     8    10     4    1
     9    10    12   ar
    10    11     3    1
    11    11    12   ar
    12    12    13    1
    13    13    14    1
    14    13    15    2
    15    16    15    1
    16    15    17    1
    17    17    18   ar
    18    17    20   ar
    19    19    18    1
    20    21    20    1
    21    18    22   ar
    22    20    24   ar
    23    22    23    1
    24    22     5   ar
    25    24    25    1
    26    24     5   ar
