@<TRIPOS>MOLECULE
?
 68 75 0 0 0
SMALL
GASTEIGER

@<TRIPOS>ATOM
      1 C           5.9340    6.7803    7.9906 C.ar    1  LIG1       -0.0528
      2 H           6.5703    6.9818    7.2793 H       1  LIG1        0.0624
      3 C           6.2812    6.8892    9.3243 C.ar    1  LIG1       -0.0611
      4 H           7.1470    7.1847    9.5633 H       1  LIG1        0.0618
      5 C           5.3680    6.5741   10.3241 C.ar    1  LIG1       -0.0611
      6 H           5.5948    6.6279   11.2707 H       1  LIG1        0.0618
      7 C           4.0930    6.1243   10.0029 C.ar    1  LIG1       -0.0534
      8 H           3.5010    5.8787   10.7221 H       1  LIG1        0.0624
      9 C           3.7320    6.0198    8.6730 C.ar    1  LIG1       -0.0090
     10 C           2.4763    5.5961    8.0255 C.ar    1  LIG1       -0.0090
     11 C           1.2575    5.1788    8.5544 C.ar    1  LIG1       -0.0534
     12 H           1.1152    5.0998    9.5148 H       1  LIG1        0.0624
     13 C           0.2347    4.8446    7.6820 C.ar    1  LIG1       -0.0611
     14 H          -0.6482    4.5217    8.0313 H       1  LIG1        0.0618
     15 C           0.4033    4.9238    6.3109 C.ar    1  LIG1       -0.0611
     16 H          -0.3333    4.7030    5.7081 H       1  LIG1        0.0618
     17 C           1.6171    5.3449    5.7701 C.ar    1  LIG1       -0.0528
     18 H           1.7465    5.4187    4.7826 H       1  LIG1        0.0624
     19 C           2.6443    5.6784    6.6339 C.ar    1  LIG1       -0.0019
     20 C           4.0077    6.1894    6.3545 C.2     1  LIG1        0.0328
     21 C           4.6526    6.3567    7.6725 C.ar    1  LIG1       -0.0019
     22 C           4.5167    6.4991    5.1819 C.1     1  LIG1       -0.1046
     23 C           4.9937    6.8841    4.0323 C.2     1  LIG1        0.0291
     24 C           4.7667    8.2911    3.5777 C.ar    1  LIG1       -0.0121
     25 C           3.9805    8.5815    2.4730 C.ar    1  LIG1       -0.0537
     26 H           3.6011    7.8514    1.9425 H       1  LIG1        0.0624
     27 C           3.7343    9.8925    2.1118 C.ar    1  LIG1       -0.0612
     28 H           3.1599   10.1007    1.3118 H       1  LIG1        0.0618
     29 C           4.2726   10.9282    2.8328 C.ar    1  LIG1       -0.0617
     30 H           4.0771   11.8695    2.5508 H       1  LIG1        0.0618
     31 C           5.0763   10.6510    3.9100 C.ar    1  LIG1       -0.0612
     32 H           5.4292   11.3791    4.4878 H       1  LIG1        0.0618
     33 C           5.3204    9.3415    4.2872 C.ar    1  LIG1       -0.0537
     34 H           5.8380    9.1214    5.1035 H       1  LIG1        0.0624
     35 C           5.7986    5.9259    3.1239 C.3     1  LIG1        0.1155
     36 C           7.0850    6.5866    2.6104 C.ar    1  LIG1       -0.0125
     37 C           8.1644    7.0373    3.3480 C.ar    1  LIG1       -0.0559
     38 H           8.1734    6.9731    4.3236 H       1  LIG1        0.0621
     39 C           9.2412    7.5889    2.6593 C.ar    1  LIG1       -0.0614
     40 H          10.0113    7.9103    3.1610 H       1  LIG1        0.0618
     41 C           9.2244    7.6921    1.2801 C.ar    1  LIG1       -0.0612
     42 H           9.9979    8.0990    0.8043 H       1  LIG1        0.0618
     43 C           8.1329    7.2523    0.5424 C.ar    1  LIG1       -0.0537
     44 H           8.1266    7.3387   -0.4366 H       1  LIG1        0.0624
     45 C           7.0590    6.6949    1.2241 C.ar    1  LIG1       -0.0123
     46 C           5.8065    6.1136    0.7225 C.ar    1  LIG1       -0.0123
     47 C           5.3317    5.9335   -0.5682 C.ar    1  LIG1       -0.0537
     48 H           5.8390    6.2439   -1.3454 H       1  LIG1        0.0624
     49 C           4.1185    5.2833   -0.7458 C.ar    1  LIG1       -0.0612
     50 H           3.7992    5.1160   -1.6514 H       1  LIG1        0.0618
     51 C           3.3805    4.8385    0.3419 C.ar    1  LIG1       -0.0614
     52 H           2.5426    4.3925    0.1959 H       1  LIG1        0.0618
     53 C           3.8450    5.0245    1.6350 C.ar    1  LIG1       -0.0559
     54 H           3.3457    4.7032    2.4277 H       1  LIG1        0.0621
     55 C           5.0631    5.6541    1.8100 C.ar    1  LIG1       -0.0125
     56 C           6.0719    4.6744    3.8451 C.1     1  LIG1       -0.0753
     57 C           6.2595    3.6675    4.4669 C.1     1  LIG1       -0.0647
     58 C           6.4485    2.4755    5.2472 C.ar    1  LIG1        0.0250
     59 C           7.5428    1.6396    5.0394 C.ar    1  LIG1       -0.0463
     60 H           8.1709    1.8744    4.3459 H       1  LIG1        0.0630
     61 C           7.6889    0.4877    5.7927 C.ar    1  LIG1       -0.0606
     62 H           8.4804   -0.1102    5.6260 H       1  LIG1        0.0618
     63 C           6.7588    0.1558    6.7585 C.ar    1  LIG1       -0.0617
     64 H           6.8745   -0.6663    7.2980 H       1  LIG1        0.0618
     65 C           5.6841    0.9919    6.9815 C.ar    1  LIG1       -0.0606
     66 H           5.0244    0.7720    7.6656 H       1  LIG1        0.0618
     67 C           5.5257    2.1454    6.2364 C.ar    1  LIG1       -0.0463
     68 H           4.7600    2.7513    6.3967 H       1  LIG1        0.0630
@<TRIPOS>BOND
     1    50    49    1
     2    48    47    1
     3    49    47   ar
     4    49    51   ar
     5    47    46   ar
     6    44    43    1
     7    52    51    1
     8    51    53   ar
     9    43    45   ar
    10    43    41   ar
    11    46    45    1
    12    46    55   ar
    13    42    41    1
    14    45    36   ar
    15    41    39   ar
    16    28    27    1
    17    53    55   ar
    18    53    54    1
    19    55    35    1
    20    26    25    1
    21    27    25   ar
    22    27    29   ar
    23    25    24   ar
    24    30    29    1
    25    36    35    1
    26    36    37   ar
    27    39    40    1
    28    39    37   ar
    29    29    31   ar
    30    35    56    1
    31    35    23    1
    32    37    38    1
    33    24    23    1
    34    24    33   ar
    35    56    57    3
    36    31    33   ar
    37    31    32    1
    38    23    22    2
    39    33    34    1
    40    60    59    1
    41    57    58    1
    42    18    17    1
    43    59    58   ar
    44    59    61   ar
    45    22    20    2
    46    58    67   ar
    47    62    61    1
    48    16    15    1
    49    17    15   ar
    50    17    19   ar
    51    61    63   ar
    52    67    68    1
    53    67    65   ar
    54    15    13   ar
    55    20    19    1
    56    20    21    1
    57    19    10   ar
    58    63    65   ar
    59    63    64    1
    60    65    66    1
    61     2     1    1
    62    21     1   ar
    63    21     9   ar
    64    13    14    1
    65    13    11   ar
    66     1     3   ar
    67    10    11   ar
    68    10     9    1
    69    11    12    1
    70     9     7   ar
    71     3     4    1
    72     3     5   ar
    73     7     5   ar
    74     7     8    1
    75     5     6    1
