@<TRIPOS>MOLECULE
?
 33 35 0 0 0
SMALL
GASTEIGER

@<TRIPOS>ATOM
      1 P          11.6129    5.1592    3.9407 P.3     1  LIG1       -0.0236
      2 O          14.6972    4.5143    3.2181 O.3     1  LIG1       -0.4547
      3 C          10.7392    3.5426    3.6499 C.3     1  LIG1        0.0468
      4 C          11.3657    2.3192    3.9107 C.2     1  LIG1       -0.0707
      5 H          12.2462    2.3129    4.2647 H       1  LIG1        0.0582
      6 C          10.7225    1.1124    3.6610 C.2     1  LIG1       -0.0650
      7 H          11.1623    0.2904    3.8442 H       1  LIG1        0.0615
      8 C          12.9892    4.6187    4.9915 C.ar    1  LIG1        0.0243
      9 C          12.7335    4.4370    6.3614 C.ar    1  LIG1       -0.0474
     10 H          11.8678    4.6438    6.6937 H       1  LIG1        0.0628
     11 C          13.6926    3.9677    7.2500 C.ar    1  LIG1       -0.0496
     12 C          14.9701    3.7024    6.7386 C.ar    1  LIG1       -0.0553
     13 H          15.6467    3.3777    7.3224 H       1  LIG1        0.0621
     14 C          15.2681    3.9035    5.3994 C.ar    1  LIG1       -0.0184
     15 H          16.1435    3.7305    5.0757 H       1  LIG1        0.0654
     16 C          14.2771    4.3613    4.5254 C.ar    1  LIG1        0.1364
     17 C          12.5260    5.3310    2.3750 C.ar    1  LIG1        0.0243
     18 C          11.8315    5.8139    1.2485 C.ar    1  LIG1       -0.0474
     19 H          10.9200    6.0645    1.3472 H       1  LIG1        0.0628
     20 C          12.4250    5.9379   -0.0010 C.ar    1  LIG1       -0.0496
     21 C          13.7796    5.6056   -0.1125 C.ar    1  LIG1       -0.0553
     22 H          14.2137    5.6859   -0.9553 H       1  LIG1        0.0621
     23 C          14.5011    5.1616    0.9833 C.ar    1  LIG1       -0.0184
     24 H          15.4238    4.9607    0.8940 H       1  LIG1        0.0654
     25 C          13.8707    5.0093    2.2204 C.ar    1  LIG1        0.1364
     26 C          13.3554    3.7513    8.7080 C.3     1  LIG1       -0.0397
     27 H          12.5523    4.2652    8.9376 H       1  LIG1        0.0278
     28 H          14.1056    4.0498    9.2642 H       1  LIG1        0.0278
     29 H          13.1887    2.7985    8.8668 H       1  LIG1        0.0278
     30 C          11.6173    6.4166   -1.1900 C.3     1  LIG1       -0.0397
     31 H          11.5270    5.6875   -1.8384 H       1  LIG1        0.0278
     32 H          12.0739    7.1737   -1.6112 H       1  LIG1        0.0278
     33 H          10.7268    6.6983   -0.8886 H       1  LIG1        0.0278
@<TRIPOS>BOND
     1    31    30    1
     2    32    30    1
     3    30    33    1
     4    30    20    1
     5    22    21    1
     6    21    20   ar
     7    21    23   ar
     8    20    18   ar
     9    24    23    1
    10    23    25   ar
    11    18    19    1
    12    18    17   ar
    13    25    17   ar
    14    25     2    1
    15    17     1    1
    16     2    16    1
    17     3     4    1
    18     3     1    1
    19     6     7    1
    20     6     4    2
    21     4     5    1
    22     1     8    1
    23    16     8   ar
    24    16    14   ar
    25     8     9   ar
    26    15    14    1
    27    14    12   ar
    28     9    10    1
    29     9    11   ar
    30    12    11   ar
    31    12    13    1
    32    11    26    1
    33    26    29    1
    34    26    27    1
    35    26    28    1
