@<TRIPOS>MOLECULE
C16 H20 O2
 38 39 0 0 0
SMALL
GASTEIGER

@<TRIPOS>ATOM
      1 O          -0.7570    6.5484    1.4444 O.3     1  LIG1       -0.3510
      2 O           0.1319    5.3654    3.2476 O.3     1  LIG1       -0.3512
      3 C           0.4075    6.1907    2.1591 C.3     1  LIG1        0.1633
      4 C          -1.6752    7.3384    2.2183 C.3     1  LIG1        0.0507
      5 C          -1.0286    8.6360    2.6461 C.3     1  LIG1       -0.0289
      6 C           0.2292    8.3386    3.4367 C.3     1  LIG1       -0.0421
      7 C           1.1803    7.4081    2.6661 C.3     1  LIG1        0.0279
      8 C          -0.3416    4.0687    2.8514 C.3     1  LIG1        0.0478
      9 C          -0.0609    3.1127    3.8617 C.3     1  LIG1       -0.0415
     10 C           1.8869    8.1129    1.4944 C.3     1  LIG1        0.0527
     11 C           2.8237    7.1938    0.8193 C.1     1  LIG1       -0.0971
     12 C           3.5715    6.4712    0.2731 C.1     1  LIG1       -0.1186
     13 C           2.6267    9.3842    1.9117 C.ar    1  LIG1       -0.0321
     14 C           2.2879   10.5949    1.3493 C.ar    1  LIG1       -0.0574
     15 C           2.9596   11.7548    1.7017 C.ar    1  LIG1       -0.0615
     16 C           3.9775   11.7051    2.6356 C.ar    1  LIG1       -0.0617
     17 C           4.3296   10.4997    3.2076 C.ar    1  LIG1       -0.0615
     18 C           3.6525    9.3483    2.8409 C.ar    1  LIG1       -0.0574
     19 H           0.9759    5.7109    1.5670 H       1  LIG1        0.0913
     20 H          -2.4425    7.5300    1.6912 H       1  LIG1        0.0561
     21 H          -1.9356    6.8499    2.9898 H       1  LIG1        0.0561
     22 H          -0.8063    9.1472    1.8774 H       1  LIG1        0.0287
     23 H          -1.6346    9.1278    3.1885 H       1  LIG1        0.0287
     24 H           0.6781    9.1553    3.6182 H       1  LIG1        0.0271
     25 H          -0.0135    7.9226    4.2551 H       1  LIG1        0.0271
     26 H           1.8463    7.1019    3.2715 H       1  LIG1        0.0365
     27 H          -1.2797    4.1083    2.7081 H       1  LIG1        0.0558
     28 H           0.0908    3.8094    2.0464 H       1  LIG1        0.0558
     29 H           0.7932    2.7286    3.7060 H       1  LIG1        0.0252
     30 H          -0.7231    2.4314    3.8454 H       1  LIG1        0.0252
     31 H          -0.0670    3.5380    4.7115 H       1  LIG1        0.0252
     32 H           1.2219    8.3604    0.8632 H       1  LIG1        0.0486
     33 H           4.1763    5.8870   -0.1690 H       1  LIG1        0.1228
     34 H           1.5842   10.6351    0.7114 H       1  LIG1        0.0621
     35 H           2.7209   12.5834    1.3025 H       1  LIG1        0.0618
     36 H           4.4349   12.4994    2.8838 H       1  LIG1        0.0618
     37 H           5.0296   10.4590    3.8483 H       1  LIG1        0.0618
     38 H           3.8954    8.5187    3.2352 H       1  LIG1        0.0621
@<TRIPOS>BOND
     1    33    12    1
     2    12    11    3
     3    34    14    1
     4    11    10    1
     5    32    10    1
     6    35    15    1
     7    14    15   ar
     8    14    13   ar
     9     1     3    1
    10     1     4    1
    11    10    13    1
    12    10     7    1
    13    19     3    1
    14    20     4    1
    15    15    16   ar
    16    22     5    1
    17    13    18   ar
    18    28     8    1
    19     3     7    1
    20     3     2    1
    21     4     5    1
    22     4    21    1
    23    16    36    1
    24    16    17   ar
    25     5    23    1
    26     5     6    1
    27     7    26    1
    28     7     6    1
    29    27     8    1
    30    18    17   ar
    31    18    38    1
    32     8     2    1
    33     8     9    1
    34    17    37    1
    35     6    24    1
    36     6    25    1
    37    29     9    1
    38    30     9    1
    39     9    31    1
