@<TRIPOS>MOLECULE
?
 52 55 0 0 0
SMALL
GASTEIGER

@<TRIPOS>ATOM
      1 O           2.5806    1.6101    1.5946 O.2     1  LIG1       -0.2869
      2 N           1.8846   -0.7364    2.5122 N.2     1  LIG1       -0.2065
      3 H           1.9918    0.1703    2.1127 H       1  LIG1        0.4532
      4 C           3.0086   -1.3442    2.8589 C.2     1  LIG1        0.2060
      5 C           4.2706   -0.7476    2.6641 C.3     1  LIG1        0.1253
      6 C           5.4824   -1.3710    3.0405 C.2     1  LIG1       -0.0618
      7 H           5.5537   -2.2167    3.4453 H       1  LIG1        0.0587
      8 C           6.5398   -0.5504    2.7237 C.2     1  LIG1       -0.0639
      9 H           7.4472   -0.7361    2.8866 H       1  LIG1        0.0615
     10 C           6.0425    0.5991    2.1234 C.2     1  LIG1       -0.0538
     11 H           6.5659    1.3152    1.8141 H       1  LIG1        0.0622
     12 C           4.6439    0.5316    2.0481 C.2     1  LIG1        0.0216
     13 C           3.8323    1.5695    1.4968 C.2     1  LIG1        0.1906
     14 C           2.9199   -2.7041    3.4675 C.ar    1  LIG1        0.0430
     15 C           3.3392   -2.9282    4.7756 C.ar    1  LIG1       -0.0486
     16 H           3.6929   -2.2192    5.2805 H       1  LIG1        0.0625
     17 C           3.2377   -4.1894    5.3397 C.ar    1  LIG1       -0.0610
     18 H           3.5241   -4.3325    6.2236 H       1  LIG1        0.0618
     19 C           2.7230   -5.2254    4.6148 C.ar    1  LIG1       -0.0617
     20 H           2.6437   -6.0772    5.0055 H       1  LIG1        0.0618
     21 C           2.3188   -5.0251    3.3171 C.ar    1  LIG1       -0.0610
     22 H           1.9752   -5.7438    2.8182 H       1  LIG1        0.0618
     23 C           2.4154   -3.7714    2.7390 C.ar    1  LIG1       -0.0486
     24 H           2.1376   -3.6427    1.8502 H       1  LIG1        0.0625
     25 C           4.4665    2.7066    0.7591 C.ar    1  LIG1        0.0220
     26 C           5.4453    2.5190   -0.2099 C.ar    1  LIG1       -0.0509
     27 H           5.7593    1.6522   -0.3969 H       1  LIG1        0.0625
     28 C           5.9590    3.5992   -0.8997 C.ar    1  LIG1       -0.0611
     29 H           6.6079    3.4602   -1.5652 H       1  LIG1        0.0618
     30 C           5.5327    4.8699   -0.6229 C.ar    1  LIG1       -0.0617
     31 H           5.9021    5.6027   -1.0812 H       1  LIG1        0.0618
     32 C           4.5572    5.0698    0.3323 C.ar    1  LIG1       -0.0611
     33 H           4.2617    5.9409    0.5251 H       1  LIG1        0.0618
     34 C           4.0154    3.9954    1.0053 C.ar    1  LIG1       -0.0509
     35 H           3.3343    4.1378    1.6374 H       1  LIG1        0.0625
     36 C           0.5642   -1.3063    2.5606 C.ar    1  LIG1        0.2121
     37 C          -0.1339   -1.3560    3.7716 C.ar    1  LIG1        0.0210
     38 C          -1.3816   -1.9636    3.7594 C.ar    1  LIG1       -0.0526
     39 H          -1.8660   -2.0367    4.5626 H       1  LIG1        0.0622
     40 C          -1.9245   -2.4599    2.6007 C.ar    1  LIG1       -0.0609
     41 H          -2.7622   -2.8859    2.6216 H       1  LIG1        0.0618
     42 C          -1.2484   -2.3360    1.4102 C.ar    1  LIG1       -0.0526
     43 H          -1.6440   -2.6499    0.6171 H       1  LIG1        0.0622
     44 C           0.0088   -1.7534    1.3629 C.ar    1  LIG1        0.0210
     45 C           0.4244   -0.7631    5.0310 C.3     1  LIG1       -0.0335
     46 H          -0.2556   -0.7738    5.7222 H       1  LIG1        0.0280
     47 H           0.7002    0.1521    4.8637 H       1  LIG1        0.0280
     48 H           1.1895   -1.2836    5.3215 H       1  LIG1        0.0280
     49 C           0.7487   -1.6129    0.0623 C.3     1  LIG1       -0.0335
     50 H           1.4590   -2.2727    0.0212 H       1  LIG1        0.0280
     51 H           1.1296   -0.7227    0.0025 H       1  LIG1        0.0280
     52 H           0.1344   -1.7520   -0.6756 H       1  LIG1        0.0280
@<TRIPOS>BOND
     1    29    28    1
     2    31    30    1
     3    28    30   ar
     4    28    26   ar
     5    52    49    1
     6    30    32   ar
     7    27    26    1
     8    26    25   ar
     9    51    49    1
    10    50    49    1
    11    49    44    1
    12    32    33    1
    13    32    34   ar
    14    43    42    1
    15    25    34   ar
    16    25    13    1
    17    34    35    1
    18    44    42   ar
    19    44    36   ar
    20    42    40   ar
    21    13     1    2
    22    13    12    1
    23    11    10    1
    24    24    23    1
    25    12    10    2
    26    12     5    1
    27     3     2    1
    28    10     8    1
    29     2    36    1
    30     2     4    2
    31    36    37   ar
    32    40    41    1
    33    40    38   ar
    34     5     4    1
    35     5     6    1
    36     8     9    1
    37     8     6    2
    38    23    21   ar
    39    23    14   ar
    40    22    21    1
    41     4    14    1
    42     6     7    1
    43    21    19   ar
    44    14    15   ar
    45    38    37   ar
    46    38    39    1
    47    37    45    1
    48    19    20    1
    49    19    17   ar
    50    15    16    1
    51    15    17   ar
    52    47    45    1
    53    45    48    1
    54    45    46    1
    55    17    18    1
