@<TRIPOS>MOLECULE
?
 43 44 0 0 0
SMALL
GASTEIGER

@<TRIPOS>ATOM
      1 P           5.8190    4.6308    1.0403 P.3     1  LIG1        0.1292
      2 O           4.1363    5.6969    3.0167 O.3     1  LIG1       -0.4645
      3 O           1.5345    4.6422   -0.6376 O.3     1  LIG1       -0.4623
      4 C           3.3202    5.1021    2.1262 C.2     1  LIG1        0.3659
      5 C           6.5345    4.4809   -0.5849 C.2     1  LIG1        0.0752
      6 H           6.4395    3.7499   -1.1514 H       1  LIG1        0.1044
      7 O           2.1098    5.0953    2.2596 O.2     1  LIG1       -0.2452
      8 C           5.8538    2.7478    3.0651 C.ar    1  LIG1       -0.0188
      9 H           4.9415    2.9102    3.1347 H       1  LIG1        0.0657
     10 C           6.4682    6.2764    1.2848 C.2     1  LIG1        0.0752
     11 H           6.3319    6.8072    2.0368 H       1  LIG1        0.1044
     12 C           6.6188    3.4623    2.1533 C.ar    1  LIG1        0.1067
     13 C           6.4518    1.7954    3.8676 C.ar    1  LIG1       -0.0580
     14 H           5.9389    1.3149    4.4767 H       1  LIG1        0.0619
     15 C           3.4736    3.5995    0.1437 C.2     1  LIG1        0.2996
     16 C           7.9800    3.2458    2.0800 C.ar    1  LIG1       -0.0188
     17 H           8.5006    3.7449    1.4937 H       1  LIG1        0.0657
     18 C           4.0739    4.4853    1.0723 C.3     1  LIG1        0.3136
     19 C           7.1788    6.6188    0.2140 C.2     1  LIG1       -0.0090
     20 C           7.2269    5.5859   -0.8575 C.2     1  LIG1       -0.0090
     21 O           1.2519    2.6795    0.3870 O.2     1  LIG1       -0.2415
     22 C           7.7888    1.5593    3.7694 C.ar    1  LIG1       -0.0615
     23 H           8.1818    0.9076    4.3030 H       1  LIG1        0.0618
     24 C           1.9569    3.5795    0.0293 C.2     1  LIG1        0.3800
     25 C           7.8902    7.9347    0.0667 C.3     1  LIG1       -0.0362
     26 H           7.7164    8.4804    0.8370 H       1  LIG1        0.0279
     27 H           7.5737    8.3823   -0.7212 H       1  LIG1        0.0279
     28 H           8.8349    7.7814   -0.0103 H       1  LIG1        0.0279
     29 C           8.5655    2.2819    2.8833 C.ar    1  LIG1       -0.0580
     30 H           9.4803    2.1207    2.8261 H       1  LIG1        0.0619
     31 C           8.0039    5.8015   -2.1284 C.3     1  LIG1       -0.0362
     32 H           8.0449    4.9781   -2.6209 H       1  LIG1        0.0279
     33 H           8.8917    6.0919   -1.9144 H       1  LIG1        0.0279
     34 H           7.5658    6.4716   -2.6605 H       1  LIG1        0.0279
     35 C           0.1187    4.7468   -0.8143 C.3     1  LIG1        0.0821
     36 H          -0.1956    4.0013   -1.3302 H       1  LIG1        0.0661
     37 H          -0.0860    5.5639   -1.2745 H       1  LIG1        0.0661
     38 H          -0.3109    4.7468    0.0440 H       1  LIG1        0.0661
     39 O           4.0694    2.8304   -0.6164 O.2     1  LIG1       -0.2796
     40 C           3.5416    6.3220    4.1681 C.3     1  LIG1        0.0818
     41 H           3.0682    7.1102    3.8955 H       1  LIG1        0.0661
     42 H           4.2297    6.5621    4.7933 H       1  LIG1        0.0661
     43 H           2.9313    5.7085    4.5851 H       1  LIG1        0.0661
@<TRIPOS>BOND
     1    34    31    1
     2    32    31    1
     3    31    33    1
     4    31    20    1
     5    36    35    1
     6    37    35    1
     7     6     5    1
     8    20     5    2
     9    20    19    1
    10    35     3    1
    11    35    38    1
    12    27    25    1
    13     3    24    1
    14    39    15    2
    15     5     1    1
    16    28    25    1
    17    24    15    1
    18    24    21    2
    19    25    19    1
    20    25    26    1
    21    15    18    1
    22    19    10    2
    23     1    18    1
    24     1    10    1
    25     1    12    1
    26    18     4    1
    27    10    11    1
    28    17    16    1
    29    16    12   ar
    30    16    29   ar
    31     4     7    2
    32     4     2    1
    33    12     8   ar
    34    30    29    1
    35    29    22   ar
    36     2    40    1
    37     8     9    1
    38     8    13   ar
    39    22    13   ar
    40    22    23    1
    41    13    14    1
    42    41    40    1
    43    40    43    1
    44    40    42    1
