@<TRIPOS>MOLECULE
?
 105 109 0 0 0
SMALL
GASTEIGER

@<TRIPOS>ATOM
      1 P           1.3756   -0.3450    6.5021 P.3     1  LIG1        0.1725
      2 P           2.8868    4.9502    6.5411 P.3     1  LIG1        0.1511
      3 O           0.8717    0.9731    6.0160 O.2     1  LIG1       -0.3064
      4 O           7.4660   -3.0306   10.9958 O.3     1  LIG1       -0.4671
      5 O           7.5132   -1.0908   12.1386 O.2     1  LIG1       -0.2496
      6 O           8.3023   -0.2217    7.9227 O.3     1  LIG1       -0.4671
      7 O           9.4268   -1.3615    9.5024 O.2     1  LIG1       -0.2496
      8 O           1.5513    2.8310    8.3820 O.2     1  LIG1       -0.2915
      9 O           3.7719    5.3879    7.6572 O.2     1  LIG1       -0.3109
     10 O          -0.9175    2.2816    4.2575 O.3     2  HOH2       -0.2528
     11 H          -0.3743    1.7846    4.7003 H       0  HOH0        0.2528
     12 C           2.9646   -0.1338    7.3856 C.ar    1  LIG1        0.0338
     13 C           3.8629   -1.2046    7.6659 C.ar    1  LIG1       -0.0353
     14 C           4.9680   -0.9183    8.4590 C.ar    1  LIG1       -0.0387
     15 C           6.0575   -1.8937    8.8725 C.3     1  LIG1       -0.0007
     16 H           6.5258   -2.2543    8.0790 H       1  LIG1        0.0329
     17 H           5.6755   -2.6472    9.3886 H       1  LIG1        0.0329
     18 C           7.0352   -1.0472    9.7604 C.3     1  LIG1        0.1716
     19 C           6.3615    0.3433    9.9561 C.3     1  LIG1       -0.0007
     20 H           6.0791    0.4672   10.8975 H       1  LIG1        0.0329
     21 H           6.9853    1.0732    9.7105 H       1  LIG1        0.0329
     22 C           5.1697    0.3297    9.0395 C.ar    1  LIG1       -0.0387
     23 C           4.2908    1.3917    8.8020 C.ar    1  LIG1       -0.0358
     24 C           3.2099    1.1550    7.9322 C.ar    1  LIG1        0.0323
     25 C           2.3777    2.3943    7.6105 C.2     1  LIG1        0.1718
     26 C           2.7872    3.1429    6.3450 C.3     1  LIG1        0.0717
     27 H           2.1326    2.9372    5.6301 H       1  LIG1        0.0429
     28 H           3.6722    2.8070    6.0491 H       1  LIG1        0.0429
     29 C           3.6528   -2.6199    7.1846 C.3     1  LIG1       -0.0387
     30 H           4.2452   -3.2247    7.6805 H       1  LIG1        0.0278
     31 H           3.8609   -2.6732    6.2279 H       1  LIG1        0.0278
     32 H           2.7177   -2.8802    7.3331 H       1  LIG1        0.0278
     33 C           4.4964    2.7190    9.5075 C.3     1  LIG1       -0.0388
     34 H           5.4347    2.8033    9.7786 H       1  LIG1        0.0278
     35 H           3.9233    2.7599   10.3014 H       1  LIG1        0.0278
     36 H           4.2646    3.4515    8.8999 H       1  LIG1        0.0278
     37 C           7.3496   -1.6941   11.1141 C.2     1  LIG1        0.3246
     38 C           7.9146   -3.7229   12.1884 C.3     1  LIG1        0.0817
     39 H           7.9248   -4.6883   12.0232 H       1  LIG1        0.0661
     40 H           7.3060   -3.5246   12.9309 H       1  LIG1        0.0661
     41 H           8.8187   -3.4230   12.4200 H       1  LIG1        0.0661
     42 C           8.4018   -0.9084    9.0732 C.2     1  LIG1        0.3246
     43 C           9.5652   -0.0384    7.2037 C.3     1  LIG1        0.0817
     44 H           9.4196    0.5478    6.4322 H       1  LIG1        0.0661
     45 H           9.8954   -0.9072    6.8972 H       1  LIG1        0.0661
     46 H          10.2251    0.3693    7.8031 H       1  LIG1        0.0661
     47 C           0.2529   -1.1241    7.6911 C.ar    1  LIG1        0.0200
     48 C           0.6325   -1.4054    9.0075 C.ar    1  LIG1       -0.0507
     49 H           1.5341   -1.2691    9.2796 H       1  LIG1        0.0625
     50 C          -0.3008   -1.8813    9.9205 C.ar    1  LIG1       -0.0611
     51 H          -0.0343   -2.0734   10.8123 H       1  LIG1        0.0618
     52 C          -1.6098   -2.0783    9.5385 C.ar    1  LIG1       -0.0617
     53 H          -2.2463   -2.3993   10.1686 H       1  LIG1        0.0618
     54 C          -2.0025   -1.8082    8.2391 C.ar    1  LIG1       -0.0611
     55 H          -2.9020   -1.9544    7.9751 H       1  LIG1        0.0618
     56 C          -1.0807   -1.3236    7.3178 C.ar    1  LIG1       -0.0507
     57 H          -1.3584   -1.1265    6.4305 H       1  LIG1        0.0625
     58 C           1.5993   -1.4847    5.1194 C.ar    1  LIG1        0.0200
     59 C           1.0548   -2.7686    5.0717 C.ar    1  LIG1       -0.0507
     60 H           0.4986   -3.0747    5.7766 H       1  LIG1        0.0625
     61 C           1.3293   -3.6027    3.9872 C.ar    1  LIG1       -0.0611
     62 H           0.9678   -4.4813    3.9629 H       1  LIG1        0.0618
     63 C           2.1291   -3.1578    2.9448 C.ar    1  LIG1       -0.0617
     64 H           2.3278   -3.7340    2.2156 H       1  LIG1        0.0618
     65 C           2.6407   -1.8664    2.9726 C.ar    1  LIG1       -0.0611
     66 H           3.1778   -1.5553    2.2531 H       1  LIG1        0.0618
     67 C           2.3706   -1.0311    4.0421 C.ar    1  LIG1       -0.0507
     68 H           2.7090   -0.1438    4.0463 H       1  LIG1        0.0625
     69 C           1.2021    5.5905    6.6899 C.ar    1  LIG1        0.0162
     70 C           0.0960    5.0142    6.0867 C.ar    1  LIG1       -0.0510
     71 H           0.1939    4.2223    5.5722 H       1  LIG1        0.0625
     72 C          -1.1610    5.6004    6.2381 C.ar    1  LIG1       -0.0611
     73 H          -1.9205    5.2088    5.8209 H       1  LIG1        0.0618
     74 C          -1.3056    6.7518    6.9925 C.ar    1  LIG1       -0.0617
     75 H          -2.1641    7.1459    7.0964 H       1  LIG1        0.0618
     76 C          -0.2123    7.3243    7.5937 C.ar    1  LIG1       -0.0611
     77 H          -0.3177    8.1150    8.1097 H       1  LIG1        0.0618
     78 C           1.0425    6.7530    7.4503 C.ar    1  LIG1       -0.0510
     79 H           1.7949    7.1521    7.8696 H       1  LIG1        0.0625
     80 C           3.4824    5.5137    4.9225 C.ar    1  LIG1        0.0162
     81 C           2.8929    5.0812    3.7348 C.ar    1  LIG1       -0.0510
     82 H           2.1541    4.4851    3.7670 H       1  LIG1        0.0625
     83 C           3.3805    5.5162    2.4978 C.ar    1  LIG1       -0.0611
     84 H           2.9733    5.2187    1.6928 H       1  LIG1        0.0618
     85 C           4.4628    6.3837    2.4550 C.ar    1  LIG1       -0.0617
     86 H           4.7996    6.6811    1.6179 H       1  LIG1        0.0618
     87 C           5.0561    6.8174    3.6274 C.ar    1  LIG1       -0.0611
     88 H           5.8007    7.4086    3.5899 H       1  LIG1        0.0618
     89 C           4.5699    6.3961    4.8723 C.ar    1  LIG1       -0.0510
     90 H           4.9754    6.7047    5.6744 H       1  LIG1        0.0625
     91 C           5.9980    3.0822    4.0344 C.ar    3  LIG3       -0.0588
     92 H           6.1380    4.0092    3.8794 H       3  LIG3        0.0620
     93 C           5.4835    2.2940    3.0364 C.ar    3  LIG3       -0.0615
     94 H           5.2664    2.6831    2.1969 H       3  LIG3        0.0618
     95 C           5.2795    0.9654    3.2289 C.ar    3  LIG3       -0.0617
     96 H           4.9206    0.4325    2.5290 H       3  LIG3        0.0618
     97 C           5.5901    0.3941    4.4329 C.ar    3  LIG3       -0.0615
     98 H           5.4462   -0.5354    4.5623 H       3  LIG3        0.0618
     99 C           6.1112    1.1513    5.4581 C.ar    3  LIG3       -0.0588
    100 H           6.3289    0.7374    6.2841 H       3  LIG3        0.0620
    101 C           6.3255    2.5220    5.2946 C.ar    3  LIG3       -0.0504
    102 C           6.8435    3.3722    6.4288 C.3     3  LIG3       -0.0397
    103 H           7.5610    2.8938    6.8937 H       3  LIG3        0.0278
    104 H           6.1156    3.5593    7.0555 H       3  LIG3        0.0278
    105 H           7.1936    4.2149    6.0712 H       3  LIG3        0.0278
@<TRIPOS>BOND
     1    86    85    1
     2    84    83    1
     3    94    93    1
     4    64    63    1
     5    66    65    1
     6    85    83   ar
     7    85    87   ar
     8    83    81   ar
     9    96    95    1
    10    63    65   ar
    11    63    61   ar
    12    65    67   ar
    13    93    95   ar
    14    93    91   ar
    15    95    97   ar
    16    88    87    1
    17    87    89   ar
    18    81    82    1
    19    81    80   ar
    20    92    91    1
    21    62    61    1
    22    61    59   ar
    23    91   101   ar
    24    67    68    1
    25    67    58   ar
    26    10    11    1
    27    97    98    1
    28    97    99   ar
    29    89    80   ar
    30    89    90    1
    31    80     2    1
    32    59    58   ar
    33    59    60    1
    34    58     1    1
    35   101    99   ar
    36   101   102    1
    37    99   100    1
    38    71    70    1
    39    27    26    1
    40    73    72    1
    41     3     1    2
    42    28    26    1
    43   105   102    1
    44    70    72   ar
    45    70    69   ar
    46    31    29    1
    47    72    74   ar
    48    26     2    1
    49    26    25    1
    50   102   103    1
    51   102   104    1
    52    57    56    1
    53    44    43    1
    54     1    12    1
    55     1    47    1
    56     2    69    1
    57     2     9    2
    58    69    78   ar
    59    45    43    1
    60    74    75    1
    61    74    76   ar
    62    29    32    1
    63    29    13    1
    64    29    30    1
    65    43    46    1
    66    43     6    1
    67    56    47   ar
    68    56    54   ar
    69    12    13   ar
    70    12    24   ar
    71    78    76   ar
    72    78    79    1
    73    76    77    1
    74    25    24    1
    75    25     8    2
    76    13    14   ar
    77    47    48   ar
    78     6    42    1
    79    24    23   ar
    80    55    54    1
    81    16    15    1
    82    54    52   ar
    83    14    15    1
    84    14    22   ar
    85    23    22   ar
    86    23    33    1
    87    15    17    1
    88    15    18    1
    89    36    33    1
    90    48    49    1
    91    48    50   ar
    92    22    19    1
    93    42     7    2
    94    42    18    1
    95    33    34    1
    96    33    35    1
    97    52    50   ar
    98    52    53    1
    99    21    19    1
   100    18    19    1
   101    18    37    1
   102    50    51    1
   103    19    20    1
   104     4    37    1
   105     4    38    1
   106    37     5    2
   107    39    38    1
   108    38    41    1
   109    38    40    1
