@<TRIPOS>MOLECULE
1-(2-hydroxy-5-nitrobenzyl)piperidinium bromide
 35 35 0 0 0
SMALL
GASTEIGER

@<TRIPOS>ATOM
      1 BR          1.4756   12.7854    9.1294 Br      1  LIG1        0.0000
      2 O           3.3549   18.3422    6.5098 O.3     2  LIG2       -0.5063
      3 H           3.3212   19.1810    6.4780 H       2  LIG2        0.2921
      4 N           4.0658   14.8773    6.3668 N.4     2  LIG2        0.2386
      5 H           3.7341   14.3326    5.6896 H       2  LIG2        0.2037
      6 C           5.0570   15.8039    5.7153 C.3     2  LIG2       -0.0316
      7 H           5.4231   16.4265    6.3932 H       2  LIG2        0.0814
      8 H           4.6004   16.3418    5.0203 H       2  LIG2        0.0814
      9 O           3.4146   17.4235   12.6922 O.2     2  LIG2       -0.1261
     10 N           3.3027   16.5925   11.7870 N.pl3   2  LIG2        0.0564
     11 C           6.1927   15.0152    5.0827 C.3     2  LIG2       -0.0123
     12 H           6.8628   15.6450    4.7164 H       2  LIG2        0.0317
     13 H           5.8374   14.4761    4.3318 H       2  LIG2        0.0317
     14 O           3.0941   15.3996   11.9927 O.2     2  LIG2       -0.1261
     15 C           6.8679   14.0914    6.0890 C.3     2  LIG2       -0.0434
     16 H           7.5644   13.5545    5.6341 H       2  LIG2        0.0269
     17 H           7.3048   14.6300    6.7960 H       2  LIG2        0.0269
     18 C           5.8349   13.1668    6.7136 C.3     2  LIG2       -0.0123
     19 H           5.4570   12.5758    6.0157 H       2  LIG2        0.0317
     20 H           6.2725   12.5966    7.3947 H       2  LIG2        0.0317
     21 C           4.7145   13.9608    7.3633 C.3     2  LIG2       -0.0316
     22 H           4.0377   13.3384    7.7288 H       2  LIG2        0.0814
     23 H           5.0795   14.4934    8.1134 H       2  LIG2        0.0814
     24 C           2.8755   15.6087    6.9441 C.3     2  LIG2       -0.0024
     25 H           2.4311   16.1118    6.2166 H       2  LIG2        0.0868
     26 H           2.2289   14.9395    7.2836 H       2  LIG2        0.0868
     27 C           3.2038   16.5678    8.0590 C.ar    2  LIG2        0.0405
     28 C           3.1946   16.1390    9.3836 C.ar    2  LIG2       -0.0198
     29 H           3.0554   15.2214    9.5863 H       2  LIG2        0.0646
     30 C           3.3891   17.0565   10.4074 C.ar    2  LIG2        0.1269
     31 C           3.5643   18.4138   10.1554 C.ar    2  LIG2       -0.0280
     32 H           3.6818   19.0271   10.8714 H       2  LIG2        0.0641
     33 C           3.5644   18.8539    8.8486 C.ar    2  LIG2       -0.0176
     34 H           3.6835   19.7776    8.6596 H       2  LIG2        0.0655
     35 C           3.3894   17.9418    7.7964 C.ar    2  LIG2        0.1252
@<TRIPOS>BOND
     1    13    11    1
     2    12    11    1
     3     8     6    1
     4    11     6    1
     5    11    15    1
     6    16    15    1
     7     5     4    1
     8     6     4    1
     9     6     7    1
    10    19    18    1
    11    15    18    1
    12    15    17    1
    13    25    24    1
    14     4    24    1
    15     4    21    1
    16     3     2    1
    17     2    35    1
    18    18    21    1
    19    18    20    1
    20    24    26    1
    21    24    27    1
    22    21    22    1
    23    21    23    1
    24    35    27   ar
    25    35    33   ar
    26    27    28   ar
    27    34    33    1
    28    33    31   ar
    29    28    29    1
    30    28    30   ar
    31    31    30   ar
    32    31    32    1
    33    30    10    1
    34    10    14    2
    35    10     9    2
