@<TRIPOS>MOLECULE
?
 27 30 0 0 0
SMALL
GASTEIGER

@<TRIPOS>ATOM
      1 P           1.1942    4.1224   10.3899 P.3     1  LIG1        0.0001
      2 S           0.5978    1.3429   11.5203 S.2     1  LIG1       -0.0955
      3 S           3.0031    4.0547    6.3543 S.2     1  LIG1       -0.0960
      4 C           1.1909    2.3767   10.2499 C.ar    1  LIG1        0.0303
      5 C           0.9479   -0.0783   10.6134 C.ar    1  LIG1       -0.0231
      6 H           0.7786   -0.9592   10.9276 H       1  LIG1        0.0694
      7 C           1.4923    0.1976    9.4001 C.ar    1  LIG1       -0.0463
      8 H           1.7462   -0.4700    8.7737 H       1  LIG1        0.0629
      9 C           1.6426    1.6010    9.1666 C.ar    1  LIG1       -0.0015
     10 C           2.1862    2.2182    8.0018 C.ar    1  LIG1       -0.0019
     11 C           2.7237    1.5414    6.8590 C.ar    1  LIG1       -0.0464
     12 H           2.7481    0.5953    6.7694 H       1  LIG1        0.0629
     13 C           3.1934    2.3977    5.9183 C.ar    1  LIG1       -0.0231
     14 H           3.5871    2.1136    5.1021 H       1  LIG1        0.0694
     15 C           2.2673    3.6174    7.8822 C.ar    1  LIG1        0.0287
     16 C           1.8759    4.5616    8.8641 C.2     1  LIG1        0.0077
     17 C           2.0351    6.0252    8.6399 C.ar    1  LIG1       -0.0157
     18 C           2.6588    6.8176    9.6123 C.ar    1  LIG1       -0.0539
     19 H           2.9964    6.4130   10.4031 H       1  LIG1        0.0624
     20 C           2.7887    8.1873    9.4310 C.ar    1  LIG1       -0.0612
     21 H           3.2212    8.7121   10.0939 H       1  LIG1        0.0618
     22 C           2.2896    8.7931    8.2855 C.ar    1  LIG1       -0.0617
     23 H           2.3824    9.7316    8.1631 H       1  LIG1        0.0618
     24 C           1.6529    8.0231    7.3188 C.ar    1  LIG1       -0.0612
     25 H           1.3010    8.4374    6.5388 H       1  LIG1        0.0618
     26 C           1.5299    6.6506    7.4894 C.ar    1  LIG1       -0.0539
     27 H           1.1000    6.1310    6.8213 H       1  LIG1        0.0624
@<TRIPOS>BOND
     1    14    13    1
     2    13     3   ar
     3    13    11   ar
     4     3    15   ar
     5    25    24    1
     6    12    11    1
     7    27    26    1
     8    11    10   ar
     9    24    26   ar
    10    24    22   ar
    11    26    17   ar
    12    15    10   ar
    13    15    16    1
    14    10     9    1
    15    23    22    1
    16    22    20   ar
    17    17    16    1
    18    17    18   ar
    19     8     7    1
    20    16     1    2
    21     9     7   ar
    22     9     4   ar
    23     7     5   ar
    24    20    18   ar
    25    20    21    1
    26    18    19    1
    27     4     1    1
    28     4     2   ar
    29     5     6    1
    30     5     2   ar
