@<TRIPOS>MOLECULE
?
 41 45 0 0 0
SMALL
GASTEIGER

@<TRIPOS>ATOM
      1 P           2.4389    9.0040   10.2777 P.3     1  LIG1        0.1898
      2 S           1.5093   11.7488    9.1308 S.2     1  LIG1       -0.0928
      3 S          -0.3996    7.0400   12.8918 S.2     1  LIG1       -0.0973
      4 O           2.2935    8.0184    9.1627 O.2     1  LIG1       -0.3073
      5 O           2.4812    9.1829   12.8941 O.3     1  LIG1       -0.3715
      6 C           1.3278   10.3844   10.1666 C.ar    1  LIG1        0.0638
      7 C          -0.1097   12.2309    9.3980 C.ar    1  LIG1       -0.0230
      8 H          -0.4981   13.0045    9.0080 H       1  LIG1        0.0694
      9 C          -0.7821   11.3883   10.2290 C.ar    1  LIG1       -0.0462
     10 H          -1.6907   11.5049   10.4826 H       1  LIG1        0.0629
     11 C           0.0395   10.3084   10.6749 C.ar    1  LIG1        0.0009
     12 C          -0.4064    9.2064   11.5195 C.ar    1  LIG1       -0.0029
     13 C          -1.7691    8.9449   11.8672 C.ar    1  LIG1       -0.0466
     14 H          -2.4961    9.5036   11.6193 H       1  LIG1        0.0629
     15 C          -1.9026    7.8018   12.5945 C.ar    1  LIG1       -0.0234
     16 H          -2.7357    7.4652   12.9019 H       1  LIG1        0.0694
     17 C           0.4523    8.2435   12.0092 C.ar    1  LIG1        0.0412
     18 C           1.9648    8.2672   11.9355 C.3     1  LIG1        0.1834
     19 C           2.5976    6.8789   12.0446 C.ar    1  LIG1       -0.0033
     20 C           3.5597    6.6239   13.0218 C.ar    1  LIG1       -0.0550
     21 H           3.8225    7.3165   13.6161 H       1  LIG1        0.0621
     22 C           4.1387    5.3604   13.1339 C.ar    1  LIG1       -0.0614
     23 H           4.7648    5.1863   13.8268 H       1  LIG1        0.0618
     24 C           3.8044    4.3560   12.2363 C.ar    1  LIG1       -0.0617
     25 H           4.2140    3.5009   12.3011 H       1  LIG1        0.0618
     26 C           2.8656    4.6098   11.2415 C.ar    1  LIG1       -0.0614
     27 H           2.6456    3.9304   10.6147 H       1  LIG1        0.0618
     28 C           2.2455    5.8538   11.1595 C.ar    1  LIG1       -0.0550
     29 H           1.5797    6.0071   10.4988 H       1  LIG1        0.0621
     30 C           4.1211    9.6046   10.4285 C.ar    1  LIG1        0.0195
     31 C           5.1439    8.7124   10.0821 C.ar    1  LIG1       -0.0509
     32 H           4.9327    7.8248    9.8170 H       1  LIG1        0.0625
     33 C           6.4754    9.1306   10.1262 C.ar    1  LIG1       -0.0611
     34 H           7.1696    8.5265    9.8905 H       1  LIG1        0.0618
     35 C           6.7858   10.4270   10.5146 C.ar    1  LIG1       -0.0617
     36 H           7.6923   10.7114   10.5324 H       1  LIG1        0.0618
     37 C           5.7763   11.3096   10.8766 C.ar    1  LIG1       -0.0611
     38 H           5.9951   12.1924   11.1519 H       1  LIG1        0.0618
     39 C           4.4430   10.9029   10.8371 C.ar    1  LIG1       -0.0509
     40 H           3.7536   11.5071   11.0871 H       1  LIG1        0.0625
     41 H           2.2672    8.9451   13.6261 H       1  LIG1        0.2116
@<TRIPOS>BOND
     1     8     7    1
     2     2     7   ar
     3     2     6   ar
     4     4     1    2
     5     7     9   ar
     6    32    31    1
     7    34    33    1
     8    31    33   ar
     9    31    30   ar
    10    33    35   ar
    11     6     1    1
    12     6    11   ar
    13     9    10    1
    14     9    11   ar
    15     1    30    1
    16     1    18    1
    17    30    39   ar
    18    29    28    1
    19    35    36    1
    20    35    37   ar
    21    27    26    1
    22    11    12    1
    23    39    37   ar
    24    39    40    1
    25    37    38    1
    26    28    26   ar
    27    28    19   ar
    28    26    24   ar
    29    12    13   ar
    30    12    17   ar
    31    14    13    1
    32    13    15   ar
    33    18    17    1
    34    18    19    1
    35    18     5    1
    36    17     3   ar
    37    19    20   ar
    38    24    25    1
    39    24    22   ar
    40    15     3   ar
    41    15    16    1
    42     5    41    1
    43    20    22   ar
    44    20    21    1
    45    22    23    1
