@<TRIPOS>MOLECULE
?
 67 71 0 0 0
SMALL
GASTEIGER

@<TRIPOS>ATOM
      1 B           9.2834    3.8966    3.1996 B       1  LIG1        0.0000
      2 C           8.4034    3.4995    4.5019 C.2     1  LIG1        0.0000
      3 C           9.1847    3.3428    5.5731 C.2     1  LIG1        0.0000
      4 C          10.6603    3.6036    5.3128 C.3     1  LIG1        0.0000
      5 H          11.1160    2.7368    5.1722 H       1  LIG1        0.0000
      6 C          10.6548    4.3821    3.9808 C.3     1  LIG1        0.0000
      7 H          10.4875    5.3243    4.2338 H       1  LIG1        0.0000
      8 C           9.6127    2.5475    2.3833 C.3     1  LIG1        0.0000
      9 N           9.8894    1.5887    1.8382 N.3     1  LIG1        0.0000
     10 C          10.1713    0.4321    0.9836 C.3     1  LIG1        0.0000
     11 C           8.8771    0.1377    0.2495 C.3     1  LIG1        0.0000
     12 H           8.1827   -0.0731    0.8930 H       1  LIG1        0.0000
     13 H           9.0082   -0.6167   -0.3460 H       1  LIG1        0.0000
     14 H           8.6149    0.9155   -0.2681 H       1  LIG1        0.0000
     15 C          11.2543    0.8688    0.0188 C.3     1  LIG1        0.0000
     16 H          10.9519    1.6487   -0.4735 H       1  LIG1        0.0000
     17 H          11.4441    0.1483   -0.6011 H       1  LIG1        0.0000
     18 H          12.0578    1.0913    0.5146 H       1  LIG1        0.0000
     19 C          10.5766   -0.7120    1.8682 C.3     1  LIG1        0.0000
     20 H          11.4014   -0.4885    2.3288 H       1  LIG1        0.0000
     21 H          10.7137   -1.5056    1.3277 H       1  LIG1        0.0000
     22 H           9.8789   -0.8805    2.5191 H       1  LIG1        0.0000
     23 C           6.9221    3.3781    4.5142 C.ar    1  LIG1        0.0000
     24 C           6.1230    4.1148    5.3800 C.ar    1  LIG1        0.0000
     25 F           6.6830    4.9395    6.2797 F       1  LIG1        0.0000
     26 C           4.7453    4.0433    5.3623 C.ar    1  LIG1        0.0000
     27 F           4.0177    4.7878    6.2142 F       1  LIG1        0.0000
     28 C           4.1181    3.2253    4.4625 C.ar    1  LIG1        0.0000
     29 F           2.7758    3.1513    4.4474 F       1  LIG1        0.0000
     30 C           4.8637    2.4847    3.5888 C.ar    1  LIG1        0.0000
     31 F           4.2558    1.6663    2.7115 F       1  LIG1        0.0000
     32 C           6.2386    2.5724    3.6223 C.ar    1  LIG1        0.0000
     33 F           6.9350    1.8087    2.7604 F       1  LIG1        0.0000
     34 C           8.7800    2.8820    6.9347 C.3     1  LIG1        0.0000
     35 H           8.7924    3.5824    7.6351 H       1  LIG1        0.0000
     36 C           9.2089    1.5215    7.3896 C.3     1  LIG1        0.0000
     37 H           9.6822    0.9515    6.7464 H       1  LIG1        0.0000
     38 H           9.4945    1.4198    8.3205 H       1  LIG1        0.0000
     39 C           7.7744    1.8150    7.1323 C.3     1  LIG1        0.0000
     40 H           7.3652    1.4209    6.3334 H       1  LIG1        0.0000
     41 H           7.1788    1.8881    7.9075 H       1  LIG1        0.0000
     42 C          11.3705    4.3537    6.4300 C.3     1  LIG1        0.0000
     43 H          10.9245    5.2003    6.5864 H       1  LIG1        0.0000
     44 H          12.2930    4.5158    6.1755 H       1  LIG1        0.0000
     45 H          11.3476    3.8229    7.2415 H       1  LIG1        0.0000
     46 C          11.9178    4.4135    3.1619 C.ar    1  LIG1        0.0000
     47 C          12.3077    5.6008    2.5437 C.ar    1  LIG1        0.0000
     48 F          11.5973    6.7194    2.7528 F       1  LIG1        0.0000
     49 C          13.3861    5.6888    1.7095 C.ar    1  LIG1        0.0000
     50 F          13.6966    6.8638    1.1315 F       1  LIG1        0.0000
     51 C          14.1425    4.5826    1.4505 C.ar    1  LIG1        0.0000
     52 F          15.1849    4.6504    0.6057 F       1  LIG1        0.0000
     53 C          13.8115    3.3885    2.0369 C.ar    1  LIG1        0.0000
     54 F          14.5244    2.2793    1.7783 F       1  LIG1        0.0000
     55 C          12.7224    3.3175    2.8791 C.ar    1  LIG1        0.0000
     56 F          12.4447    2.1119    3.4110 F       1  LIG1        0.0000
     57 C           8.6636    5.0059    2.1798 C.ar    1  LIG1        0.0000
     58 C           8.1722    6.2062    2.6830 C.ar    1  LIG1        0.0000
     59 F           8.1854    6.4239    4.0193 F       1  LIG1        0.0000
     60 C           7.6649    7.2174    1.9117 C.ar    1  LIG1        0.0000
     61 F           7.2201    8.3610    2.4624 F       1  LIG1        0.0000
     62 C           7.6139    7.0718    0.5432 C.ar    1  LIG1        0.0000
     63 F           7.0901    8.0337   -0.2255 F       1  LIG1        0.0000
     64 C           8.0928    5.9212   -0.0108 C.ar    1  LIG1        0.0000
     65 F           8.0579    5.7613   -1.3478 F       1  LIG1        0.0000
     66 C           8.5994    4.9295    0.7998 C.ar    1  LIG1        0.0000
     67 F           9.0495    3.8234    0.1570 F       1  LIG1        0.0000
@<TRIPOS>BOND
     1    65    64    1
     2    17    15    1
     3    16    15    1
     4    13    11    1
     5    14    11    1
     6    63    62    1
     7    64    62   ar
     8    64    66   ar
     9    15    18    1
    10    15    10    1
    11    67    66    1
    12    11    12    1
    13    11    10    1
    14    62    60   ar
    15    52    51    1
    16    66    57   ar
    17    10     9    1
    18    10    19    1
    19    50    49    1
    20    21    19    1
    21    51    49   ar
    22    51    53   ar
    23    49    47   ar
    24    54    53    1
    25     9     8    1
    26    19    20    1
    27    19    22    1
    28    60    61    1
    29    60    58   ar
    30    53    55   ar
    31    57    58   ar
    32    57     1    1
    33     8     1    1
    34    47    48    1
    35    47    46   ar
    36    58    59    1
    37    31    30    1
    38    33    32    1
    39    55    46   ar
    40    55    56    1
    41    46     6    1
    42     1     6    1
    43     1     2    1
    44    30    32   ar
    45    30    28   ar
    46    32    23   ar
    47     6     7    1
    48     6     4    1
    49    29    28    1
    50    28    26   ar
    51     2    23    1
    52     2     3    2
    53    23    24   ar
    54     5     4    1
    55     4     3    1
    56     4    42    1
    57    26    24   ar
    58    26    27    1
    59    24    25    1
    60     3    34    1
    61    44    42    1
    62    40    39    1
    63    42    43    1
    64    42    45    1
    65    37    36    1
    66    34    39    1
    67    34    36    1
    68    34    35    1
    69    39    36    1
    70    39    41    1
    71    36    38    1
