@<TRIPOS>MOLECULE
C22 H29 N3
 54 54 0 0 0
SMALL
GASTEIGER

@<TRIPOS>ATOM
      1 N           5.4845    9.3003    5.2997 N.1     1  LIG1       -0.1911
      2 N           6.4213    6.0078    7.2049 N.1     1  LIG1       -0.1901
      3 N           6.5829    3.7544    3.5259 N.1     1  LIG1       -0.1901
      4 C           5.6558    7.2130    2.4727 C.3     1  LIG1        0.0395
      5 C           4.2729    7.7448    2.1735 C.2     1  LIG1       -0.0511
      6 C           4.4051    8.9469    1.5914 C.2     1  LIG1       -0.0410
      7 C           5.8393    9.2650    1.4203 C.2     1  LIG1       -0.0410
      8 C           6.5864    8.2511    1.8924 C.2     1  LIG1       -0.0511
      9 C           3.0172    6.9718    2.4856 C.3     1  LIG1       -0.0241
     10 C           2.6769    6.9137    3.9756 C.3     1  LIG1       -0.0589
     11 C           3.0679    5.5696    1.8924 C.3     1  LIG1       -0.0589
     12 C           3.2830    9.8602    1.1203 C.3     1  LIG1       -0.0213
     13 C           2.4078   10.3113    2.2638 C.3     1  LIG1       -0.0586
     14 C           2.5000    9.2688   -0.0378 C.3     1  LIG1       -0.0586
     15 C           6.4062   10.5170    0.7953 C.3     1  LIG1       -0.0213
     16 C           6.0459   10.6921   -0.6741 C.3     1  LIG1       -0.0586
     17 C           6.1017   11.7520    1.6207 C.3     1  LIG1       -0.0586
     18 C           8.0877    8.1087    1.8898 C.3     1  LIG1       -0.0241
     19 C           8.7310    8.5783    3.1846 C.3     1  LIG1       -0.0589
     20 C           8.5353    6.6942    1.5665 C.3     1  LIG1       -0.0589
     21 C           5.8568    7.1363    3.9532 C.2     1  LIG1        0.0680
     22 C           6.1963    6.0308    4.6540 C.2     1  LIG1        0.1423
     23 C           5.6595    8.3592    4.6944 C.1     1  LIG1        0.0977
     24 C           6.3337    6.0371    6.0795 C.1     1  LIG1        0.1112
     25 C           6.4014    4.7652    4.0048 C.1     1  LIG1        0.1112
     26 H           5.7915    6.3519    2.1064 H       1  LIG1        0.0447
     27 H           2.2337    7.4478    2.0549 H       1  LIG1        0.0341
     28 H           3.7447   10.6860    0.7738 H       1  LIG1        0.0344
     29 H           7.4490   10.4064    0.8254 H       1  LIG1        0.0344
     30 H           8.4257    8.6935    1.1951 H       1  LIG1        0.0341
     31 H           3.3501    6.4068    4.4287 H       1  LIG1        0.0235
     32 H           2.6513    7.7881    4.3298 H       1  LIG1        0.0235
     33 H           1.8382    6.4894    4.0917 H       1  LIG1        0.0235
     34 H           2.2649    5.1105    2.1022 H       1  LIG1        0.0235
     35 H           3.1653    5.6321    0.9509 H       1  LIG1        0.0235
     36 H           3.8083    5.1011    2.2586 H       1  LIG1        0.0235
     37 H           2.9322   10.7821    2.8957 H       1  LIG1        0.0235
     38 H           1.7241   10.8833    1.9276 H       1  LIG1        0.0235
     39 H           2.0108    9.5538    2.6739 H       1  LIG1        0.0235
     40 H           1.9022    9.9256   -0.3792 H       1  LIG1        0.0235
     41 H           3.0982    8.9990   -0.7196 H       1  LIG1        0.0235
     42 H           2.0024    8.5209    0.2700 H       1  LIG1        0.0235
     43 H           5.1170   10.8881   -0.7497 H       1  LIG1        0.0235
     44 H           6.5482   11.4153   -1.0369 H       1  LIG1        0.0235
     45 H           6.2433    9.8991   -1.1469 H       1  LIG1        0.0235
     46 H           6.4902   11.6563    2.4779 H       1  LIG1        0.0235
     47 H           6.4698   12.5120    1.1848 H       1  LIG1        0.0235
     48 H           5.1642   11.8512    1.6972 H       1  LIG1        0.0235
     49 H           8.4761    8.0020    3.8922 H       1  LIG1        0.0235
     50 H           9.6767    8.5667    3.0892 H       1  LIG1        0.0235
     51 H           8.4432    9.4635    3.3755 H       1  LIG1        0.0235
     52 H           8.2798    6.1171    2.2732 H       1  LIG1        0.0235
     53 H           8.1285    6.4173    0.7583 H       1  LIG1        0.0235
     54 H           9.4808    6.6839    1.4711 H       1  LIG1        0.0235
@<TRIPOS>BOND
     1    45    16    1
     2    44    16    1
     3    43    16    1
     4    41    14    1
     5    16    15    1
     6    40    14    1
     7    14    42    1
     8    14    12    1
     9    53    20    1
    10    28    12    1
    11    15    29    1
    12    15     7    1
    13    15    17    1
    14    35    11    1
    15    12     6    1
    16    12    13    1
    17    47    17    1
    18    30    18    1
    19     7     6    1
    20     7     8    2
    21    54    20    1
    22    20    18    1
    23    20    52    1
    24     6     5    2
    25    17    48    1
    26    17    46    1
    27    18     8    1
    28    18    19    1
    29    11    34    1
    30    11    36    1
    31    11     9    1
    32     8     4    1
    33    38    13    1
    34    27     9    1
    35    26     4    1
    36     5     4    1
    37     5     9    1
    38    13    39    1
    39    13    37    1
    40     4    21    1
    41     9    10    1
    42    50    19    1
    43    19    51    1
    44    19    49    1
    45     3    25    3
    46    21    22    2
    47    21    23    1
    48    10    33    1
    49    10    32    1
    50    10    31    1
    51    25    22    1
    52    22    24    1
    53    23     1    3
    54    24     2    3
