@<TRIPOS>MOLECULE
?
 56 58 0 0 0
SMALL
GASTEIGER

@<TRIPOS>ATOM
      1 P           6.5597    8.4944   -4.7636 P.3     1  LIG1        1.0000
      2 F           7.5266   11.4775   -4.5677 F       1  LIG1        0.0000
      3 F           6.6517   13.9787   -4.6671 F       1  LIG1        0.0000
      4 F           4.6529   14.8183   -3.0059 F       1  LIG1        0.0000
      5 F           3.5517   13.0676   -1.2742 F       1  LIG1        0.0000
      6 F           8.2535    6.9345   -2.6118 F       1  LIG1        0.0000
      7 F          10.7251    6.9370   -1.6032 F       1  LIG1        0.0000
      8 F          11.8142    9.2018   -0.5898 F       1  LIG1        0.0000
      9 F          10.3608   11.5004   -0.5824 F       1  LIG1        0.0000
     10 F           3.6294    8.8791   -3.4741 F       1  LIG1        0.0000
     11 F           1.9078    7.4268   -2.0513 F       1  LIG1        0.0000
     12 F           2.7300    6.0813    0.1707 F       1  LIG1        0.0000
     13 F           5.3166    6.2211    0.9374 F       1  LIG1        0.0000
     14 C           5.9287   10.8366   -2.9417 C.ar    1  LIG1        0.0000
     15 C           6.4918   11.8011   -3.7571 C.ar    1  LIG1        0.0000
     16 C           6.0722   13.1176   -3.8194 C.ar    1  LIG1        0.0000
     17 C           5.0641   13.5421   -2.9884 C.ar    1  LIG1        0.0000
     18 C           4.5138   12.6271   -2.1221 C.ar    1  LIG1        0.0000
     19 C           4.9140   11.3137   -2.0964 C.ar    1  LIG1        0.0000
     20 H           4.4941   10.7121   -1.4912 H       1  LIG1        0.0000
     21 C           7.9771    9.2634   -2.2210 C.ar    1  LIG1        0.0000
     22 C           8.7496    8.1149   -2.1574 C.ar    1  LIG1        0.0000
     23 C          10.0262    8.0760   -1.6317 C.ar    1  LIG1        0.0000
     24 C          10.5783    9.2269   -1.1109 C.ar    1  LIG1        0.0000
     25 C           9.8289   10.3788   -1.1236 C.ar    1  LIG1        0.0000
     26 C           8.5681   10.4081   -1.6668 C.ar    1  LIG1        0.0000
     27 H           8.0832   11.2257   -1.6677 H       1  LIG1        0.0000
     28 C           5.4383    8.3614   -2.0204 C.ar    1  LIG1        0.0000
     29 C           4.1015    8.2468   -2.3714 C.ar    1  LIG1        0.0000
     30 C           3.1866    7.4932   -1.6607 C.ar    1  LIG1        0.0000
     31 C           3.6027    6.8130   -0.5385 C.ar    1  LIG1        0.0000
     32 C           4.9204    6.8989   -0.1581 C.ar    1  LIG1        0.0000
     33 C           5.8219    7.6588   -0.8737 C.ar    1  LIG1        0.0000
     34 H           6.7244    7.7060   -0.5799 H       1  LIG1        0.0000
     35 C           8.2218    8.1651   -5.4493 C.3     1  LIG1        0.0000
     36 H           8.6266    7.4345   -4.9185 H       1  LIG1        0.0000
     37 H           8.1041    7.8234   -6.3701 H       1  LIG1        0.0000
     38 C           9.2286    9.3034   -5.5073 C.3     1  LIG1        0.0000
     39 H          10.0674    8.9774   -5.8947 H       1  LIG1        0.0000
     40 H           9.3947    9.6388   -4.6015 H       1  LIG1        0.0000
     41 H           8.8712   10.0277   -6.0621 H       1  LIG1        0.0000
     42 C           5.6168    9.4669   -5.9903 C.3     1  LIG1        0.0000
     43 H           4.6737    9.1682   -5.9577 H       1  LIG1        0.0000
     44 H           5.6339   10.4155   -5.7074 H       1  LIG1        0.0000
     45 C           6.0804    9.3988   -7.4311 C.3     1  LIG1        0.0000
     46 H           5.4574    9.8977   -7.9982 H       1  LIG1        0.0000
     47 H           6.1107    8.4638   -7.7209 H       1  LIG1        0.0000
     48 H           6.9757    9.7918   -7.5047 H       1  LIG1        0.0000
     49 C           5.7868    6.8287   -4.7825 C.3     1  LIG1        0.0000
     50 H           6.2857    6.2533   -4.1495 H       1  LIG1        0.0000
     51 H           4.8642    6.9157   -4.4358 H       1  LIG1        0.0000
     52 C           5.7195    6.1118   -6.1086 C.3     1  LIG1        0.0000
     53 H           5.2802    5.2439   -5.9883 H       1  LIG1        0.0000
     54 H           6.6271    5.9734   -6.4512 H       1  LIG1        0.0000
     55 H           5.2084    6.6516   -6.7465 H       1  LIG1        0.0000
     56 B           6.4760    9.2960   -2.8715 B       1  LIG1        0.0000
@<TRIPOS>BOND
     1    46    45    1
     2    47    45    1
     3    48    45    1
     4    45    42    1
     5    55    52    1
     6    54    52    1
     7    37    35    1
     8    52    53    1
     9    52    49    1
    10    41    38    1
    11    42    43    1
    12    42    44    1
    13    42     1    1
    14    39    38    1
    15    38    35    1
    16    38    40    1
    17    35    36    1
    18    35     1    1
    19    49     1    1
    20    49    51    1
    21    49    50    1
    22     1    56    1
    23     3    16    1
    24     2    15    1
    25    16    15   ar
    26    16    17   ar
    27    15    14   ar
    28    10    29    1
    29     4    17    1
    30    17    18   ar
    31    14    56    1
    32    14    19   ar
    33    56    21    1
    34    56    28    1
    35     6    22    1
    36    29    28   ar
    37    29    30   ar
    38    21    22   ar
    39    21    26   ar
    40    22    23   ar
    41    18    19   ar
    42    18     5    1
    43    19    20    1
    44    11    30    1
    45    28    33   ar
    46    27    26    1
    47    26    25   ar
    48    30    31   ar
    49    23     7    1
    50    23    24   ar
    51    25    24   ar
    52    25     9    1
    53    24     8    1
    54    33    34    1
    55    33    32   ar
    56    31    32   ar
    57    31    12    1
    58    32    13    1
