@<TRIPOS>MOLECULE
?
 36 39 0 0 0
SMALL
GASTEIGER

@<TRIPOS>ATOM
      1 B           3.6748    6.3059    2.6203 B       1  LIG1        0.0000
      2 H           3.3799    6.8432    3.5680 H       1  LIG1        0.0000
      3 N           3.4708    4.6884    2.8756 N.4     1  LIG1        1.0000
      4 C           4.7149    4.2245    3.5753 C.3     1  LIG1        0.0000
      5 H           4.9005    3.2728    3.3750 H       1  LIG1        0.0000
      6 H           4.6327    4.3363    4.5561 H       1  LIG1        0.0000
      7 C           5.8012    5.1127    3.0226 C.ar    1  LIG1        0.0000
      8 C           7.1677    4.8465    3.0690 C.ar    1  LIG1        0.0000
      9 H           7.4937    4.0448    3.4610 H       1  LIG1        0.0000
     10 C           8.0465    5.7822    2.5288 C.ar    1  LIG1        0.0000
     11 H           8.9826    5.6240    2.5590 H       1  LIG1        0.0000
     12 C           7.5591    6.9476    1.9449 C.ar    1  LIG1        0.0000
     13 H           8.1650    7.5801    1.5767 H       1  LIG1        0.0000
     14 C           6.1836    7.1928    1.8987 C.ar    1  LIG1        0.0000
     15 H           5.8627    7.9883    1.4907 H       1  LIG1        0.0000
     16 C           5.2749    6.2805    2.4447 C.ar    1  LIG1        0.0000
     17 C           2.7232    6.5387    1.3362 C.3     1  LIG1        0.0000
     18 H           3.1074    7.2762    0.7797 H       1  LIG1        0.0000
     19 C           1.2683    6.8902    1.6856 C.3     1  LIG1        0.0000
     20 H           1.2119    7.8685    1.8251 H       1  LIG1        0.0000
     21 H           0.6997    6.6697    0.9059 H       1  LIG1        0.0000
     22 C           0.6791    6.1941    2.9183 C.3     1  LIG1        0.0000
     23 H           1.0486    6.6314    3.7267 H       1  LIG1        0.0000
     24 H          -0.2985    6.3454    2.9202 H       1  LIG1        0.0000
     25 C           0.9307    4.6951    3.0301 C.3     1  LIG1        0.0000
     26 H           0.8804    4.3023    2.1232 H       1  LIG1        0.0000
     27 H           0.2007    4.2955    3.5661 H       1  LIG1        0.0000
     28 C           2.2639    4.2912    3.6556 C.3     1  LIG1        0.0000
     29 H           2.3240    4.6964    4.5561 H       1  LIG1        0.0000
     30 H           2.2720    3.3074    3.7687 H       1  LIG1        0.0000
     31 C           3.4266    4.1226    1.4714 C.3     1  LIG1        0.0000
     32 H           2.8635    3.3092    1.4486 H       1  LIG1        0.0000
     33 H           4.3396    3.8805    1.1715 H       1  LIG1        0.0000
     34 C           2.8324    5.2072    0.5437 C.3     1  LIG1        0.0000
     35 H           1.9364    4.9280    0.2293 H       1  LIG1        0.0000
     36 H           3.4158    5.3319   -0.2465 H       1  LIG1        0.0000
@<TRIPOS>BOND
     1    36    34    1
     2    35    34    1
     3    34    17    1
     4    34    31    1
     5    18    17    1
     6    21    19    1
     7    33    31    1
     8    17    19    1
     9    17     1    1
    10    32    31    1
    11    31     3    1
    12    15    14    1
    13    13    12    1
    14    19    20    1
    15    19    22    1
    16    14    12   ar
    17    14    16   ar
    18    12    10   ar
    19    26    25    1
    20    16     1    1
    21    16     7   ar
    22    10    11    1
    23    10     8   ar
    24     1     3    1
    25     1     2    1
    26     3     4    1
    27     3    28    1
    28    22    24    1
    29    22    25    1
    30    22    23    1
    31     7     8   ar
    32     7     4    1
    33    25    27    1
    34    25    28    1
    35     8     9    1
    36     5     4    1
    37     4     6    1
    38    28    30    1
    39    28    29    1
