@<TRIPOS>MOLECULE
?
 65 66 0 0 0
SMALL
GASTEIGER

@<TRIPOS>ATOM
      1 B           2.2154    7.1766   12.7318 B       1  LIG1        0.0000
      2 N           4.5497    4.5978   12.1494 N.am    1  LIG1        0.0000
      3 O           2.8486    5.2340   10.7567 O.2     1  LIG1        0.0000
      4 O           2.9595    6.0590   12.8620 O.3     1  LIG1        0.0000
      5 F           0.7524    4.7856   13.4131 F       1  LIG1        0.0000
      6 F           2.1769    4.5149   14.9934 F       1  LIG1        0.0000
      7 F           0.0753    4.4481   15.3977 F       1  LIG1        0.0000
      8 F           0.2001    7.7156   18.8927 F       1  LIG1        0.0000
      9 F          -1.6072    8.3079   17.9451 F       1  LIG1        0.0000
     10 F          -0.1221    9.7346   18.3318 F       1  LIG1        0.0000
     11 F           1.0669   10.2792   12.6671 F       1  LIG1        0.0000
     12 F           1.6755   11.2497   14.4605 F       1  LIG1        0.0000
     13 F           3.0603   10.0196   13.3927 F       1  LIG1        0.0000
     14 F          -0.1641    6.2816   11.5720 F       1  LIG1        0.0000
     15 F          -0.8583    8.1898   12.1514 F       1  LIG1        0.0000
     16 F          -1.2834    7.4497   10.2229 F       1  LIG1        0.0000
     17 F           1.2700    9.3080    6.6861 F       1  LIG1        0.0000
     18 F           1.2101   11.1038    7.6036 F       1  LIG1        0.0000
     19 F           3.0789   10.3991    7.0785 F       1  LIG1        0.0000
     20 F           5.4020    7.5917   10.7079 F       1  LIG1        0.0000
     21 F           5.2825    9.6398   11.2966 F       1  LIG1        0.0000
     22 F           4.6798    8.1043   12.6350 F       1  LIG1        0.0000
     23 C           3.4429    5.2756   11.8042 C.2     1  LIG1        0.0000
     24 C           5.2079    4.7148   13.4675 C.3     1  LIG1        0.0000
     25 H           4.6969    5.3650   13.9925 H       1  LIG1        0.0000
     26 C           5.1682    3.3934   14.2147 C.3     1  LIG1        0.0000
     27 H           4.2610    3.0874   14.2738 H       1  LIG1        0.0000
     28 H           5.5228    3.5163   15.0990 H       1  LIG1        0.0000
     29 H           5.6969    2.7439   13.7459 H       1  LIG1        0.0000
     30 C           6.6307    5.2525   13.3347 C.3     1  LIG1        0.0000
     31 H           7.1716    4.6113   12.8674 H       1  LIG1        0.0000
     32 H           6.9971    5.4045   14.2075 H       1  LIG1        0.0000
     33 H           6.6164    6.0769   12.8443 H       1  LIG1        0.0000
     34 C           5.1353    3.6578   11.1652 C.3     1  LIG1        0.0000
     35 H           5.9175    3.2519   11.5951 H       1  LIG1        0.0000
     36 C           4.1833    2.5215   10.8320 C.3     1  LIG1        0.0000
     37 H           3.8937    2.0985   11.6441 H       1  LIG1        0.0000
     38 H           4.6330    1.8799   10.2780 H       1  LIG1        0.0000
     39 H           3.4207    2.8688   10.3631 H       1  LIG1        0.0000
     40 C           5.6443    4.3719    9.9174 C.3     1  LIG1        0.0000
     41 H           4.9068    4.7820    9.4601 H       1  LIG1        0.0000
     42 H           6.0668    3.7349    9.3346 H       1  LIG1        0.0000
     43 H           6.2793    5.0443   10.1698 H       1  LIG1        0.0000
     44 C           1.4906    7.5846   14.1123 C.ar    1  LIG1        0.0000
     45 C           0.9968    6.5741   14.9850 C.ar    1  LIG1        0.0000
     46 C           0.4412    6.8837   16.2111 C.ar    1  LIG1        0.0000
     47 H           0.1393    6.1998   16.7651 H       1  LIG1        0.0000
     48 C           0.3278    8.1925   16.6266 C.ar    1  LIG1        0.0000
     49 C           0.7731    9.2081   15.8072 C.ar    1  LIG1        0.0000
     50 H           0.6911   10.0949   16.0770 H       1  LIG1        0.0000
     51 C           1.3417    8.9097   14.5854 C.ar    1  LIG1        0.0000
     52 C           1.0159    5.0856   14.6749 C.3     1  LIG1        0.0000
     53 C          -0.2757    8.4863   17.9595 C.3     1  LIG1        0.0000
     54 C           1.7828   10.1095   13.7747 C.3     1  LIG1        0.0000
     55 C           2.1349    7.9706   11.3490 C.ar    1  LIG1        0.0000
     56 C           3.2672    8.5514   10.7598 C.ar    1  LIG1        0.0000
     57 C           3.2159    9.2097    9.5467 C.ar    1  LIG1        0.0000
     58 H           3.9884    9.5828    9.1875 H       1  LIG1        0.0000
     59 C           2.0220    9.3149    8.8701 C.ar    1  LIG1        0.0000
     60 C           0.8753    8.7640    9.4154 C.ar    1  LIG1        0.0000
     61 H           0.0645    8.8354    8.9668 H       1  LIG1        0.0000
     62 C           0.9374    8.1107   10.6203 C.ar    1  LIG1        0.0000
     63 C           4.6536    8.4750   11.3628 C.3     1  LIG1        0.0000
     64 C           1.9402    9.9888    7.5430 C.3     1  LIG1        0.0000
     65 C          -0.3405    7.5116   11.1320 C.3     1  LIG1        0.0000
@<TRIPOS>BOND
     1    17    64    1
     2    19    64    1
     3    64    18    1
     4    64    59    1
     5    59    60   ar
     6    59    57   ar
     7    61    60    1
     8    58    57    1
     9    42    40    1
    10    60    62   ar
    11    41    40    1
    12    57    56   ar
    13    40    43    1
    14    40    34    1
    15    16    65    1
    16    38    36    1
    17    39    36    1
    18    62    65    1
    19    62    55   ar
    20    20    63    1
    21     3    23    2
    22    56    55   ar
    23    56    63    1
    24    36    34    1
    25    36    37    1
    26    65    14    1
    27    65    15    1
    28    34    35    1
    29    34     2    1
    30    21    63    1
    31    55     1    1
    32    63    22    1
    33    23     2   am
    34    23     4    1
    35     2    24    1
    36    11    54    1
    37     1     4    1
    38     1    44    1
    39    33    30    1
    40    31    30    1
    41    30    24    1
    42    30    32    1
    43    13    54    1
    44     5    52    1
    45    24    25    1
    46    24    26    1
    47    29    26    1
    48    54    12    1
    49    54    51    1
    50    44    51   ar
    51    44    45   ar
    52    26    27    1
    53    26    28    1
    54    51    49   ar
    55    52    45    1
    56    52     6    1
    57    52     7    1
    58    45    46   ar
    59    49    50    1
    60    49    48   ar
    61    46    48   ar
    62    46    47    1
    63    48    53    1
    64     9    53    1
    65    53    10    1
    66    53     8    1
