@<TRIPOS>MOLECULE
?
 52 55 0 0 0
SMALL
GASTEIGER

@<TRIPOS>ATOM
      1 N           8.6081    9.8604    8.3602 N.3     1  LIG1        0.0000
      2 B           5.7075   11.3725    8.6279 B       1  LIG1        0.0000
      3 H           5.5491   10.6728    9.5104 H       1  LIG1        0.0000
      4 C           8.0804   10.7770    9.1186 C.3     1  LIG1        0.0000
      5 C           7.3001   11.9412    8.6954 C.3     1  LIG1        0.0000
      6 H           7.6081   12.3140    7.8325 H       1  LIG1        0.0000
      7 C           7.4979   12.9227    9.8705 C.3     1  LIG1        0.0000
      8 H           8.3352   13.4227    9.7726 H       1  LIG1        0.0000
      9 H           6.7527   13.5575    9.9271 H       1  LIG1        0.0000
     10 C           7.5412   12.0229   11.1034 C.3     1  LIG1        0.0000
     11 H           6.6361   11.8268   11.4255 H       1  LIG1        0.0000
     12 H           8.0535   12.4426   11.8259 H       1  LIG1        0.0000
     13 C           8.2320   10.7531   10.6094 C.3     1  LIG1        0.0000
     14 H           9.1785   10.7544   10.8618 H       1  LIG1        0.0000
     15 H           7.8047    9.9574   10.9892 H       1  LIG1        0.0000
     16 C           9.2978    8.6678    8.9021 C.3     1  LIG1        0.0000
     17 H           8.8674    7.8548    8.5626 H       1  LIG1        0.0000
     18 H           9.2298    8.6627    9.8793 H       1  LIG1        0.0000
     19 C          10.7447    8.6831    8.4951 C.3     1  LIG1        0.0000
     20 H          11.1801    7.8641    8.8107 H       1  LIG1        0.0000
     21 H          11.1926    9.4465    8.9152 H       1  LIG1        0.0000
     22 C          10.8870    8.7806    6.9968 C.3     1  LIG1        0.0000
     23 H          10.5382    7.9654    6.5800 H       1  LIG1        0.0000
     24 H          11.8348    8.8616    6.7617 H       1  LIG1        0.0000
     25 C          10.1261    9.9888    6.4679 C.3     1  LIG1        0.0000
     26 H          10.5396   10.8092    6.8074 H       1  LIG1        0.0000
     27 H          10.1787   10.0052    5.4897 H       1  LIG1        0.0000
     28 C           8.6805    9.9442    6.8912 C.3     1  LIG1        0.0000
     29 H           8.2191   10.7513    6.5811 H       1  LIG1        0.0000
     30 H           8.2414    9.1657    6.4919 H       1  LIG1        0.0000
     31 C           4.6358   12.6017    8.7313 C.ar    1  LIG1        0.0000
     32 F           3.1531   11.2129    9.9464 F       1  LIG1        0.0000
     33 C           3.4373   12.4187    9.3950 C.ar    1  LIG1        0.0000
     34 C           2.4817   13.4149    9.5626 C.ar    1  LIG1        0.0000
     35 F           1.3515   13.1303   10.2514 F       1  LIG1        0.0000
     36 F           1.7900   15.6197    9.2394 F       1  LIG1        0.0000
     37 C           2.7017   14.6585    9.0566 C.ar    1  LIG1        0.0000
     38 F           4.0924   16.1234    7.8901 F       1  LIG1        0.0000
     39 C           3.8634   14.8980    8.3907 C.ar    1  LIG1        0.0000
     40 F           5.9169   14.2410    7.5789 F       1  LIG1        0.0000
     41 C           4.7939   13.8895    8.2394 C.ar    1  LIG1        0.0000
     42 C           5.4319   10.4631    7.2840 C.ar    1  LIG1        0.0000
     43 F           5.4435    8.4298    8.4834 F       1  LIG1        0.0000
     44 C           5.3002    9.0852    7.3210 C.ar    1  LIG1        0.0000
     45 F           4.9263    6.9644    6.3427 F       1  LIG1        0.0000
     46 C           5.0476    8.2991    6.2242 C.ar    1  LIG1        0.0000
     47 F           4.6603    8.1142    3.9192 F       1  LIG1        0.0000
     48 C           4.9050    8.8721    4.9957 C.ar    1  LIG1        0.0000
     49 F           4.8535   10.8197    3.6903 F       1  LIG1        0.0000
     50 C           5.0103   10.2362    4.8912 C.ar    1  LIG1        0.0000
     51 F           5.4006   12.3128    5.8188 F       1  LIG1        0.0000
     52 C           5.2749   10.9786    6.0120 C.ar    1  LIG1        0.0000
@<TRIPOS>BOND
     1    49    50    1
     2    47    48    1
     3    50    48   ar
     4    50    52   ar
     5    48    46   ar
     6    27    25    1
     7    51    52    1
     8    52    42   ar
     9    46    45    1
    10    46    44   ar
    11    25    26    1
    12    25    28    1
    13    25    22    1
    14    30    28    1
    15    23    22    1
    16    29    28    1
    17    24    22    1
    18    28     1    1
    19    22    19    1
    20    42    44   ar
    21    42     2    1
    22    44    43    1
    23    40    41    1
    24     6     5    1
    25    38    39    1
    26    41    39   ar
    27    41    31   ar
    28     1    16    1
    29     1     4    1
    30    39    37   ar
    31    19    20    1
    32    19    16    1
    33    19    21    1
    34    17    16    1
    35     2     5    1
    36     2    31    1
    37     2     3    1
    38     5     4    1
    39     5     7    1
    40    31    33   ar
    41    16    18    1
    42    37    36    1
    43    37    34   ar
    44     4    13    1
    45    33    34   ar
    46    33    32    1
    47    34    35    1
    48     8     7    1
    49     7     9    1
    50     7    10    1
    51    13    14    1
    52    13    15    1
    53    13    10    1
    54    10    11    1
    55    10    12    1
