@<TRIPOS>MOLECULE
C26 H16 N4 S4
 25 27 0 0 0
SMALL
GASTEIGER

@<TRIPOS>ATOM
      1 C           3.0971    5.2215    0.4122 C.2     1  LIG1        0.0707
      2 C           3.6179    3.6866    2.4410 C.2     1  LIG1        0.0348
      3 C           4.4329    3.2472    1.4705 C.2     1  LIG1        0.0348
      4 C           3.5525    3.2075    3.8483 C.ar    1  LIG1       -0.0073
      5 C           2.5061    2.4138    4.2982 C.ar    1  LIG1       -0.0353
      6 C           2.5110    1.9973    5.6141 C.ar    1  LIG1        0.0281
      7 C           4.4278    3.1139    6.0674 C.ar    1  LIG1        0.0281
      8 C           4.5268    3.5711    4.7649 C.ar    1  LIG1       -0.0353
      9 C           5.3937    2.1233    1.5197 C.ar    1  LIG1       -0.0073
     10 C           5.1785    0.9896    2.3012 C.ar    1  LIG1       -0.0353
     11 C           6.1086   -0.0305    2.2775 C.ar    1  LIG1        0.0281
     12 C           7.4128    1.0740    0.7829 C.ar    1  LIG1        0.0281
     13 C           6.5409    2.1423    0.7343 C.ar    1  LIG1       -0.0353
     14 N           3.4462    2.3276    6.5037 N.ar    1  LIG1       -0.2632
     15 N           7.2279   -0.0138    1.5398 N.ar    1  LIG1       -0.2632
     16 S           2.5485    5.0230    2.0730 S.3     1  LIG1       -0.0789
     17 S           4.3527    4.0966   -0.0734 S.3     1  LIG1       -0.0789
     18 H           1.8112    2.1836    3.7000 H       1  LIG1        0.0639
     19 H           1.8662    1.4671    5.8893 H       1  LIG1        0.0830
     20 H           5.0243    3.3664    6.6785 H       1  LIG1        0.0830
     21 H           5.1900    4.1307    4.5105 H       1  LIG1        0.0639
     22 H           4.4214    0.8700    2.8182 H       1  LIG1        0.0639
     23 H           5.9878   -0.8143    2.8289 H       1  LIG1        0.0830
     24 H           8.1455    1.0804    0.2173 H       1  LIG1        0.0830
     25 H           6.7582    2.8751    0.1710 H       1  LIG1        0.0639
@<TRIPOS>BOND
     1    17     1    2
     2    17     3    1
     3    25    13    1
     4    24    12    1
     5     1    16    1
     6    13    12   ar
     7    13     9   ar
     8    12    15   ar
     9     3     9    1
    10     3     2    2
    11     9    10   ar
    12    15    11   ar
    13    16     2    1
    14    11    10   ar
    15    11    23    1
    16    10    22    1
    17     2     4    1
    18    18     5    1
    19     4     5   ar
    20     4     8   ar
    21     5     6   ar
    22    21     8    1
    23     8     7   ar
    24     6    19    1
    25     6    14   ar
    26     7    14   ar
    27     7    20    1
