@<TRIPOS>MOLECULE
PhC(NOtBu)Ph
 38 39 0 0 0
SMALL
GASTEIGER

@<TRIPOS>ATOM
      1 C          -0.4393    4.5216    7.4649 C.3     1  LIG1        0.1304
      2 C          -0.4783    3.1839    8.1873 C.3     1  LIG1       -0.0229
      3 C          -1.8226    4.9460    7.0049 C.3     1  LIG1       -0.0229
      4 C           0.5475    4.5217    6.3109 C.3     1  LIG1       -0.0229
      5 C           1.6126    6.4042    9.5973 C.2     1  LIG1        0.1169
      6 C           0.8191    7.6301    9.8988 C.ar    1  LIG1        0.0041
      7 C           0.2060    8.3617    8.8845 C.ar    1  LIG1       -0.0524
      8 C          -0.5095    9.5170    9.1822 C.ar    1  LIG1       -0.0611
      9 C          -0.6369    9.9351   10.4977 C.ar    1  LIG1       -0.0617
     10 C          -0.0293    9.2184   11.5139 C.ar    1  LIG1       -0.0611
     11 C           0.7031    8.0766   11.2184 C.ar    1  LIG1       -0.0524
     12 C           3.0045    6.2870   10.1122 C.ar    1  LIG1        0.0041
     13 C           3.7908    7.4258   10.2733 C.ar    1  LIG1       -0.0524
     14 C           5.1273    7.3156   10.6487 C.ar    1  LIG1       -0.0611
     15 C           5.6834    6.0693   10.8825 C.ar    1  LIG1       -0.0617
     16 C           4.9015    4.9317   10.7544 C.ar    1  LIG1       -0.0611
     17 C           3.5694    5.0315   10.3735 C.ar    1  LIG1       -0.0524
     18 N           1.2218    5.4163    8.8677 N.2     1  LIG1       -0.0835
     19 O          -0.0916    5.5770    8.4164 O.2     1  LIG1       -0.3876
     20 H           0.4104    2.9603    8.5912 H       1  LIG1        0.0269
     21 H          -0.7319    2.4414    7.5486 H       1  LIG1        0.0269
     22 H          -1.1220    3.2127    8.9456 H       1  LIG1        0.0269
     23 H          -1.7795    5.8413    6.6073 H       1  LIG1        0.0269
     24 H          -2.1628    4.2909    6.3357 H       1  LIG1        0.0269
     25 H          -2.4632    4.9926    7.7702 H       1  LIG1        0.0269
     26 H           0.5390    5.4409    5.9158 H       1  LIG1        0.0269
     27 H           0.2369    3.8742    5.6240 H       1  LIG1        0.0269
     28 H           1.4487    4.2855    6.5964 H       1  LIG1        0.0269
     29 H           0.2852    8.0705    7.9325 H       1  LIG1        0.0624
     30 H          -0.9147   10.0375    8.4336 H       1  LIG1        0.0618
     31 H          -1.1618   10.7436   10.7032 H       1  LIG1        0.0618
     32 H          -0.1049    9.5251   12.4732 H       1  LIG1        0.0618
     33 H           1.1313    7.5635   11.9222 H       1  LIG1        0.0624
     34 H           3.4059    8.3240   10.0975 H       1  LIG1        0.0624
     35 H           5.6491    8.1390   10.7578 H       1  LIG1        0.0618
     36 H           6.6349    5.9838   11.1277 H       1  LIG1        0.0618
     37 H           5.2700    4.0363   10.9295 H       1  LIG1        0.0618
     38 H           3.0209    4.2333   10.2911 H       1  LIG1        0.0624
@<TRIPOS>BOND
     1    27     4    1
     2    26     4    1
     3     4    28    1
     4     4     1    1
     5    24     3    1
     6    23     3    1
     7     3     1    1
     8     3    25    1
     9     1     2    1
    10     1    19    1
    11    21     2    1
    12    29     7    1
    13     2    20    1
    14     2    22    1
    15    19    18    1
    16    30     8    1
    17    18     5    2
    18     7     8   ar
    19     7     6   ar
    20     8     9   ar
    21     5     6    1
    22     5    12    1
    23     6    11   ar
    24    34    13    1
    25    12    13   ar
    26    12    17   ar
    27    13    14   ar
    28    38    17    1
    29    17    16   ar
    30     9    31    1
    31     9    10   ar
    32    14    35    1
    33    14    15   ar
    34    16    15   ar
    35    16    37    1
    36    15    36    1
    37    11    10   ar
    38    11    33    1
    39    10    32    1
