@<TRIPOS>MOLECULE
?
 51 55 0 0 0
SMALL
GASTEIGER

@<TRIPOS>ATOM
      1 CL          5.6807    2.2259   10.7883 Cl      1  LIG1       -0.1083
      2 C           5.8054    2.8650   12.4163 C.3     1  LIG1        0.0970
      3 H           6.6630    3.3066   12.5211 H       1  LIG1        0.0597
      4 H           5.7673    2.1332   13.0506 H       1  LIG1        0.0597
      5 P           0.4716    4.4558   10.8838 P.3     1  LIG1        0.2728
      6 CL          1.9065    6.3810   13.1341 Cl      1  LIG1        0.1582
      7 P           0.6764    4.4948   13.1420 P.3     1  LIG1        0.3753
      8 CL         -0.7925    2.4731   13.0401 Cl      1  LIG1        0.1582
      9 CL          4.5143    4.0108   12.7745 Cl      1  LIG1       -0.1083
     10 C          -1.6262    5.6021   12.0341 C.ar    1  LIG1        0.0771
     11 C          -0.9073    5.4419   13.2437 C.ar    1  LIG1        0.1768
     12 C          -2.8462    6.2966   12.0817 C.ar    1  LIG1       -0.0037
     13 C          -3.3778    6.8477   13.2685 C.ar    1  LIG1       -0.0387
     14 C          -3.1664    6.1238    9.7042 C.ar    1  LIG1       -0.0541
     15 H          -3.6594    6.2909    8.9338 H       1  LIG1        0.0622
     16 C          -1.4168    5.9837   14.4074 C.ar    1  LIG1       -0.0123
     17 H          -0.9417    5.8831   15.2001 H       1  LIG1        0.0659
     18 C          -1.9238    5.4396    9.6316 C.ar    1  LIG1       -0.0143
     19 H          -1.6021    5.1744    8.8003 H       1  LIG1        0.0658
     20 C           1.3423    6.9052    9.9158 C.ar    1  LIG1       -0.0153
     21 H           0.6196    7.2595   10.3816 H       1  LIG1        0.0658
     22 C          -1.1774    5.1555   10.7645 C.ar    1  LIG1        0.1552
     23 C           0.6473    2.7802   10.2475 C.ar    1  LIG1        0.1436
     24 C          -2.6504    6.6926   14.4242 C.ar    1  LIG1       -0.0541
     25 H          -2.9659    7.0530   15.2216 H       1  LIG1        0.0622
     26 C           2.6734    5.0051    9.2433 C.ar    1  LIG1       -0.0153
     27 H           2.8460    4.0918    9.2667 H       1  LIG1        0.0658
     28 C           1.7431    2.0190   10.6669 C.ar    1  LIG1       -0.0153
     29 H           2.3532    2.3700   11.2741 H       1  LIG1        0.0658
     30 C          -3.6311    6.5398   10.9389 C.ar    1  LIG1       -0.0387
     31 C          -0.2758    2.2528    9.3569 C.ar    1  LIG1       -0.0153
     32 H          -1.0091    2.7581    9.0888 H       1  LIG1        0.0658
     33 C           0.9869    0.2130    9.2707 C.ar    1  LIG1       -0.0615
     34 H           1.1023   -0.6481    8.9395 H       1  LIG1        0.0618
     35 C           1.5850    5.5366    9.9529 C.ar    1  LIG1        0.1436
     36 C          -0.1004    0.9667    8.8684 C.ar    1  LIG1       -0.0579
     37 H          -0.7150    0.6107    8.2680 H       1  LIG1        0.0619
     38 C           1.9101    0.7406   10.1703 C.ar    1  LIG1       -0.0579
     39 H           2.6405    0.2315   10.4376 H       1  LIG1        0.0619
     40 C           3.4916    5.8518    8.5062 C.ar    1  LIG1       -0.0579
     41 H           4.2070    5.5021    8.0269 H       1  LIG1        0.0619
     42 C           2.1761    7.7435    9.1863 C.ar    1  LIG1       -0.0579
     43 H           2.0161    8.6591    9.1705 H       1  LIG1        0.0619
     44 C           3.2439    7.2137    8.4825 C.ar    1  LIG1       -0.0615
     45 H           3.7985    7.7759    7.9910 H       1  LIG1        0.0618
     46 C          -4.6808    7.5378   12.9114 C.3     1  LIG1       -0.0231
     47 H          -4.6326    8.4846   13.1137 H       1  LIG1        0.0316
     48 H          -5.4191    7.1509   13.4079 H       1  LIG1        0.0316
     49 C          -4.8698    7.3110   11.3832 C.3     1  LIG1       -0.0231
     50 H          -5.6741    6.7983   11.2096 H       1  LIG1        0.0316
     51 H          -4.9316    8.1587   10.9168 H       1  LIG1        0.0316
@<TRIPOS>BOND
     1    45    44    1
     2    41    40    1
     3    37    36    1
     4    44    40   ar
     5    44    42   ar
     6    40    26   ar
     7    19    18    1
     8    36    33   ar
     9    36    31   ar
    10    15    14    1
    11    34    33    1
    12    32    31    1
    13    43    42    1
    14    42    20   ar
    15    26    27    1
    16    26    35   ar
    17    33    38   ar
    18    31    23   ar
    19    18    14   ar
    20    18    22   ar
    21    14    30   ar
    22    20    35   ar
    23    20    21    1
    24    35     5    1
    25    38    39    1
    26    38    28   ar
    27    23    28   ar
    28    23     5    1
    29    28    29    1
    30    22     5    1
    31    22    10   ar
    32     1     2    1
    33     5     7    1
    34    51    49    1
    35    30    49    1
    36    30    12   ar
    37    50    49    1
    38    49    46    1
    39    10    12   ar
    40    10    11   ar
    41    12    13   ar
    42     2     3    1
    43     2     9    1
    44     2     4    1
    45    46    47    1
    46    46    13    1
    47    46    48    1
    48     8     7    1
    49     6     7    1
    50     7    11    1
    51    11    16   ar
    52    13    24   ar
    53    16    24   ar
    54    16    17    1
    55    24    25    1
