@<TRIPOS>MOLECULE
(2S,3S,4R,5S,6R,9S)-3,4-diazido-6-hydroxymethyl-2-methoxy-1-oxa- cyclohexane-5-ol benzaldehyde 5,7-acetal
 40 42 0 0 0
SMALL
GASTEIGER

@<TRIPOS>ATOM
      1 O           2.5223    4.0671   16.0231 O.3     1  LIG1       -0.3521
      2 O           2.9623    7.9353   18.3202 O.3     1  LIG1       -0.3388
      3 O           1.8454    5.1028   18.0290 O.3     1  LIG1       -0.3407
      4 O           2.5895    6.8705   20.3454 O.3     1  LIG1       -0.3445
      5 N           0.8591    7.2334   16.4121 N.2     1  LIG1        0.1317
      6 N           3.6041    8.0528   15.5552 N.2     1  LIG1        0.1293
      7 N           0.7525    8.3331   15.8703 N.2     1  LIG1        0.2548
      8 N           0.5096    9.3765   15.4844 N.2     1  LIG1        0.3543
      9 N           4.5476    8.7103   15.9703 N.2     1  LIG1        0.2547
     10 N           5.3947    9.4105   16.2556 N.2     1  LIG1        0.3543
     11 C           1.6576    4.9932   16.6283 C.3     1  LIG1        0.1905
     12 H           0.7133    4.7149   16.4512 H       1  LIG1        0.0935
     13 C           1.9184    6.3237   15.9213 C.3     1  LIG1        0.2147
     14 H           1.8255    6.2025   14.9332 H       1  LIG1        0.0693
     15 C           3.3476    6.7640   16.2527 C.3     1  LIG1        0.1953
     16 H           3.9646    6.0852   15.8557 H       1  LIG1        0.0669
     17 C           3.6246    6.8018   17.7466 C.3     1  LIG1        0.1217
     18 H           4.6089    6.9104   17.8817 H       1  LIG1        0.0648
     19 C           3.1891    5.4898   18.4050 C.3     1  LIG1        0.1135
     20 H           3.8249    4.7644   18.1425 H       1  LIG1        0.0647
     21 C           3.2138    5.6527   19.9234 C.3     1  LIG1        0.0798
     22 H           2.7459    4.8866   20.3397 H       1  LIG1        0.0588
     23 H           4.1530    5.6430   20.2366 H       1  LIG1        0.0588
     24 C           3.2078    7.9762   19.7168 C.3     1  LIG1        0.1859
     25 H           4.1939    7.9413   19.8804 H       1  LIG1        0.0964
     26 C           2.1451    2.7114   16.2377 C.3     1  LIG1        0.0395
     27 H           2.1954    2.5068   17.1947 H       1  LIG1        0.0525
     28 H           2.7527    2.1218   15.7448 H       1  LIG1        0.0525
     29 H           1.2281    2.5737   15.9219 H       1  LIG1        0.0525
     30 C           2.6556    9.2572   20.2819 C.ar    1  LIG1        0.0079
     31 C           2.4289   10.3569   19.4815 C.ar    1  LIG1       -0.0538
     32 H           2.6044   10.3026   18.5492 H       1  LIG1        0.0622
     33 C           1.9482   11.5420   20.0176 C.ar    1  LIG1       -0.0613
     34 H           1.7940   12.2887   19.4523 H       1  LIG1        0.0618
     35 C           1.6934   11.6399   21.3675 C.ar    1  LIG1       -0.0617
     36 H           1.3576   12.4506   21.7332 H       1  LIG1        0.0618
     37 C           1.9269   10.5586   22.1843 C.ar    1  LIG1       -0.0613
     38 H           1.7633   10.6285   23.1170 H       1  LIG1        0.0618
     39 C           2.4025    9.3591   21.6515 C.ar    1  LIG1       -0.0538
     40 H           2.5533    8.6133   22.2198 H       1  LIG1        0.0622
@<TRIPOS>BOND
     1    14    13    1
     2     8     7    2
     3     6     9    2
     4     6    15    1
     5    28    26    1
     6    16    15    1
     7     7     5    2
     8    13    15    1
     9    13     5    1
    10    13    11    1
    11    29    26    1
    12     9    10    2
    13     1    26    1
    14     1    11    1
    15    26    27    1
    16    15    17    1
    17    12    11    1
    18    11     3    1
    19    17    18    1
    20    17     2    1
    21    17    19    1
    22     3    19    1
    23    20    19    1
    24     2    24    1
    25    19    21    1
    26    32    31    1
    27    34    33    1
    28    31    33   ar
    29    31    30   ar
    30    24    25    1
    31    24    30    1
    32    24     4    1
    33    21    23    1
    34    21    22    1
    35    21     4    1
    36    33    35   ar
    37    30    39   ar
    38    35    36    1
    39    35    37   ar
    40    39    37   ar
    41    39    40    1
    42    37    38    1
