@<TRIPOS>MOLECULE
C21 H29 N2, 0.5(C7 H8), Cl
 121 121 0 0 0
SMALL
GASTEIGER

@<TRIPOS>ATOM
      1 C          -0.3966   11.2628   17.2884 C.3     1  LIG1        0.1089
      2 C          -0.4777   10.0864   18.2700 C.3     1  LIG1       -0.0031
      3 C           0.8949    9.5207   18.6324 C.3     1  LIG1       -0.0570
      4 H           1.3259    9.1702   17.8257 H       1  LIG1        0.0236
      5 H           0.7887    8.7989   19.2868 H       1  LIG1        0.0236
      6 H           1.4498   10.2321   19.0158 H       1  LIG1        0.0236
      7 C          -1.1413   10.6173   19.5483 C.3     1  LIG1       -0.0570
      8 H          -1.1187    9.9233   20.2395 H       1  LIG1        0.0236
      9 H          -2.0714   10.8585   19.3574 H       1  LIG1        0.0236
     10 H          -0.6562   11.4085   19.8626 H       1  LIG1        0.0236
     11 C          -1.3168    8.9533   17.6717 C.3     1  LIG1       -0.0570
     12 H          -0.9367    8.6861   16.8104 H       1  LIG1        0.0236
     13 H          -2.2374    9.2639   17.5418 H       1  LIG1        0.0236
     14 H          -1.3140    8.1864   18.2828 H       1  LIG1        0.0236
     15 C          -1.8168   12.5815   15.6476 C.3     1  LIG1        0.0317
     16 H          -0.9963   12.6717   15.0830 H       1  LIG1        0.0508
     17 C          -2.9374   11.9916   14.7831 C.3     1  LIG1       -0.0455
     18 H          -2.6547   11.1205   14.4318 H       1  LIG1        0.0248
     19 H          -3.1290   12.5971   14.0373 H       1  LIG1        0.0248
     20 H          -3.7449   11.8770   15.3268 H       1  LIG1        0.0248
     21 C          -2.2033   13.9661   16.1544 C.ar    1  LIG1       -0.0307
     22 C          -2.8523   14.1570   17.3509 C.ar    1  LIG1       -0.0571
     23 H          -3.0236   13.4161   17.9187 H       1  LIG1        0.0621
     24 C          -3.2593   15.4306   17.7343 C.ar    1  LIG1       -0.0615
     25 H          -3.7106   15.5573   18.5603 H       1  LIG1        0.0618
     26 C          -3.0069   16.5133   16.9131 C.ar    1  LIG1       -0.0617
     27 H          -3.2855   17.3826   17.1761 H       1  LIG1        0.0618
     28 C          -2.3540   16.3363   15.7182 C.ar    1  LIG1       -0.0615
     29 H          -2.1805   17.0790   15.1520 H       1  LIG1        0.0618
     30 C          -1.9529   15.0697   15.3461 C.ar    1  LIG1       -0.0571
     31 H          -1.4973   14.9500   14.5201 H       1  LIG1        0.0621
     32 C           1.0929   13.0934   16.3854 C.3     1  LIG1        0.0317
     33 H           0.2827   13.6798   16.4030 H       1  LIG1        0.0508
     34 C           2.2169   13.8082   17.1296 C.3     1  LIG1       -0.0455
     35 H           1.9610   13.9314   18.0679 H       1  LIG1        0.0248
     36 H           2.3770   14.6828   16.7174 H       1  LIG1        0.0248
     37 H           3.0347   13.2704   17.0815 H       1  LIG1        0.0248
     38 C           1.4733   12.8522   14.9339 C.ar    1  LIG1       -0.0307
     39 C           1.5434   13.9505   14.0758 C.ar    1  LIG1       -0.0571
     40 H           1.3132   14.8146   14.3933 H       1  LIG1        0.0621
     41 C           1.9497   13.7822   12.7542 C.ar    1  LIG1       -0.0615
     42 H           2.0014   14.5318   12.1736 H       1  LIG1        0.0618
     43 C           2.2760   12.5242   12.2890 C.ar    1  LIG1       -0.0617
     44 H           2.5704   12.4132   11.3925 H       1  LIG1        0.0618
     45 C           2.1771   11.4276   13.1199 C.ar    1  LIG1       -0.0615
     46 H           2.3778   10.5583   12.7894 H       1  LIG1        0.0618
     47 C           1.7822   11.5959   14.4399 C.ar    1  LIG1       -0.0571
     48 H           1.7229   10.8394   15.0124 H       1  LIG1        0.0621
     49 C           7.4160    8.1482    6.3915 C.3     2  LIG2        0.1089
     50 C           7.5386    7.0308    5.3522 C.3     2  LIG2       -0.0031
     51 C           6.1790    6.5363    4.8454 C.3     2  LIG2       -0.0570
     52 H           6.3137    5.8006    4.2118 H       2  LIG2        0.0236
     53 H           5.7104    7.2720    4.3979 H       2  LIG2        0.0236
     54 H           5.6438    6.2205    5.6040 H       2  LIG2        0.0236
     55 C           8.3276    7.5930    4.1605 C.3     2  LIG2       -0.0570
     56 H           8.4038    6.9076    3.4644 H       2  LIG2        0.0236
     57 H           9.2227    7.8584    4.4572 H       2  LIG2        0.0236
     58 H           7.8582    8.3738    3.7980 H       2  LIG2        0.0236
     59 C           8.2856    5.8474    5.9713 C.3     2  LIG2       -0.0570
     60 H           7.7860    5.5143    6.7460 H       2  LIG2        0.0236
     61 H           9.1768    6.1372    6.2584 H       2  LIG2        0.0236
     62 H           8.3726    5.1308    5.3073 H       2  LIG2        0.0236
     63 C           5.9060    9.9406    7.3490 C.3     2  LIG2        0.0317
     64 H           6.7293   10.5080    7.3683 H       2  LIG2        0.0508
     65 C           4.8284   10.6937    6.5712 C.3     2  LIG2       -0.0455
     66 H           5.1482   10.8793    5.6633 H       2  LIG2        0.0248
     67 H           4.6283   11.5387    7.0267 H       2  LIG2        0.0248
     68 H           4.0158   10.1488    6.5262 H       2  LIG2        0.0248
     69 C           5.4747    9.6838    8.7845 C.ar    2  LIG2       -0.0307
     70 C           4.8726    8.5074    9.1823 C.ar    2  LIG2       -0.0571
     71 H           4.7445    7.8081    8.5536 H       2  LIG2        0.0621
     72 C           4.4519    8.3408   10.4959 C.ar    2  LIG2       -0.0615
     73 H           4.0394    7.5270   10.7653 H       2  LIG2        0.0618
     74 C           4.6363    9.3593   11.4101 C.ar    2  LIG2       -0.0617
     75 H           4.3394    9.2535   12.3067 H       2  LIG2        0.0618
     76 C           5.2455   10.5167   11.0268 C.ar    2  LIG2       -0.0615
     77 H           5.3895   11.2090   11.6603 H       2  LIG2        0.0618
     78 C           5.6544   10.6850    9.7164 C.ar    2  LIG2       -0.0571
     79 H           6.0639   11.5022    9.4533 H       2  LIG2        0.0621
     80 C           8.7715    9.3420    8.1799 C.3     2  LIG2        0.0317
     81 H           7.9366    9.3385    8.7284 H       2  LIG2        0.0508
     82 C           9.8788    8.6514    8.9770 C.3     2  LIG2       -0.0455
     83 H           9.6195    7.7248    9.1598 H       2  LIG2        0.0248
     84 H          10.0160    9.1251    9.8238 H       2  LIG2        0.0248
     85 H          10.7104    8.6618    8.4589 H       2  LIG2        0.0248
     86 C           9.1314   10.7804    7.8639 C.ar    2  LIG2       -0.0307
     87 C           9.3438   11.6775    8.9176 C.ar    2  LIG2       -0.0571
     88 H           9.2304   11.3808    9.8142 H       2  LIG2        0.0621
     89 C           9.7121   12.9771    8.6835 C.ar    2  LIG2       -0.0615
     90 H           9.8445   13.5671    9.4165 H       2  LIG2        0.0618
     91 C           9.8888   13.4300    7.4052 C.ar    2  LIG2       -0.0617
     92 H          10.1646   14.3253    7.2480 H       2  LIG2        0.0618
     93 C           9.6627   12.5746    6.3482 C.ar    2  LIG2       -0.0615
     94 H           9.7623   12.8869    5.4564 H       2  LIG2        0.0618
     95 C           9.2847   11.2472    6.5840 C.ar    2  LIG2       -0.0571
     96 H           9.1340   10.6642    5.8494 H       2  LIG2        0.0621
     97 C          -1.3396    5.6357   10.1366 C.3     3  LIG3       -0.0397
     98 H          -2.0392    5.1551   10.6258 H       3  LIG3        0.0278
     99 H          -0.8812    5.0180    9.5303 H       3  LIG3        0.0278
    100 H          -1.7440    6.3628    9.6169 H       3  LIG3        0.0278
    101 C          -0.3851    6.1875   11.0765 C.ar    3  LIG3       -0.0504
    102 C          -0.6688    7.3952   11.7036 C.ar    3  LIG3       -0.0588
    103 H          -1.4705    7.8567   11.4887 H       3  LIG3        0.0620
    104 C           0.1881    7.9279   12.6275 C.ar    3  LIG3       -0.0615
    105 H          -0.0302    8.7347   13.0765 H       3  LIG3        0.0618
    106 C           1.3807    7.2737   12.9001 C.ar    3  LIG3       -0.0617
    107 H           1.9876    7.6416   13.5304 H       3  LIG3        0.0618
    108 C           1.6906    6.0938   12.2618 C.ar    3  LIG3       -0.0615
    109 H           2.5115    5.6548   12.4510 H       3  LIG3        0.0618
    110 C           0.8244    5.5524   11.3572 C.ar    3  LIG3       -0.0588
    111 H           1.0445    4.7387   10.9193 H       3  LIG3        0.0620
    112 N          -1.5318   11.6294   16.7345 N.3     1  LIG1       -0.2892
    113 N           0.7719   11.8467   17.0895 N.3     1  LIG1       -0.2892
    114 N           6.2277    8.6858    6.6223 N.3     2  LIG2       -0.2892
    115 N           8.5376    8.5329    6.9688 N.3     2  LIG2       -0.2892
    116 CL         -4.4829   10.8897   17.9121 Cl      4  LIG4        0.0000
    117 CL         11.5603    7.6711    5.9861 Cl      5  LIG5        0.0000
    118 H          -2.2171   11.2611   17.0815 H       1  LIG1        0.1243
    119 H           9.2360    8.1899    6.6241 H       2  LIG2        0.1243
    120 H           1.3605   11.5040   17.4664 H       1  LIG1        0.1243
    121 H           5.5323    8.2766    6.2712 H       2  LIG2        0.1243
@<TRIPOS>BOND
     1    56    55    1
     2    58    55    1
     3    55    57    1
     4    55    50    1
     5    52    51    1
     6    53    51    1
     7    51    50    1
     8    51    54    1
     9    62    59    1
    10    50    59    1
    11    50    49    1
    12    94    93    1
    13    66    65    1
    14    96    95    1
    15    59    61    1
    16    59    60    1
    17   121   114    1
    18    93    95   ar
    19    93    91   ar
    20    49   114    1
    21    49   115    1
    22    68    65    1
    23    65    67    1
    24    65    63    1
    25    95    86   ar
    26   114    63    1
    27   119   115    1
    28   115    80    1
    29    92    91    1
    30    63    64    1
    31    63    69    1
    32    91    89   ar
    33    86    80    1
    34    86    87   ar
    35    80    81    1
    36    80    82    1
    37    85    82    1
    38    71    70    1
    39    89    87   ar
    40    89    90    1
    41    69    70   ar
    42    69    78   ar
    43    87    88    1
    44    82    83    1
    45    82    84    1
    46    70    72   ar
    47    79    78    1
    48    99    97    1
    49   100    97    1
    50    78    76   ar
    51    97    98    1
    52    97   101    1
    53    72    73    1
    54    72    74   ar
    55   111   110    1
    56    76    74   ar
    57    76    77    1
    58   101   110   ar
    59   101   102   ar
    60   110   108   ar
    61    44    43    1
    62    74    75    1
    63   103   102    1
    64   102   104   ar
    65    42    41    1
    66   108   109    1
    67   108   106   ar
    68    43    41   ar
    69    43    45   ar
    70   104   106   ar
    71   104   105    1
    72    41    39   ar
    73    46    45    1
    74   106   107    1
    75    45    47   ar
    76    19    17    1
    77    39    40    1
    78    39    38   ar
    79    18    17    1
    80    47    38   ar
    81    47    48    1
    82    31    30    1
    83    17    20    1
    84    17    15    1
    85    38    32    1
    86    16    15    1
    87    29    28    1
    88    30    28   ar
    89    30    21   ar
    90    15    21    1
    91    15   112    1
    92    28    26   ar
    93    21    22   ar
    94    32    33    1
    95    32   113    1
    96    32    34    1
    97    36    34    1
    98   112   118    1
    99   112     1    1
   100    12    11    1
   101    26    27    1
   102    26    24   ar
   103    37    34    1
   104   113     1    1
   105   113   120    1
   106    34    35    1
   107     1     2    1
   108    22    24   ar
   109    22    23    1
   110    13    11    1
   111    11     2    1
   112    11    14    1
   113    24    25    1
   114     4     3    1
   115     2     3    1
   116     2     7    1
   117     3     6    1
   118     3     5    1
   119     9     7    1
   120     7    10    1
   121     7     8    1
