@<TRIPOS>MOLECULE
?
 36 38 0 0 0
SMALL
GASTEIGER

@<TRIPOS>ATOM
      1 C           7.2340    1.1409    9.6974 C.3     1  LIG1        0.0783
      2 H           6.2792    1.3681    9.8300 H       1  LIG1        0.0584
      3 H           7.7034    1.2837   10.5573 H       1  LIG1        0.0584
      4 C           7.3499   -0.3036    9.3024 C.3     1  LIG1       -0.0219
      5 H           7.3158   -0.8534   10.1251 H       1  LIG1        0.0292
      6 H           8.2384   -0.4420    8.8897 H       1  LIG1        0.0292
      7 C           6.2921   -0.8193    8.3408 C.3     1  LIG1       -0.0100
      8 H           5.4710   -1.1813    8.7827 H       1  LIG1        0.0326
      9 C           6.7187   -1.5667    7.1027 C.3     1  LIG1       -0.0146
     10 H           7.7045   -1.5577    6.9374 H       1  LIG1        0.0323
     11 C           6.0531   -0.2039    6.9843 C.3     1  LIG1        0.0727
     12 C           4.6478   -0.1231    6.4540 C.ar    1  LIG1       -0.0250
     13 C           4.3759   -0.4878    5.1514 C.ar    1  LIG1       -0.0533
     14 H           5.0970   -0.7160    4.5761 H       1  LIG1        0.0622
     15 C           3.0699   -0.5291    4.6538 C.ar    1  LIG1       -0.0196
     16 H           2.9031   -0.7977    3.7577 H       1  LIG1        0.0654
     17 C           2.0256   -0.1734    5.4872 C.ar    1  LIG1        0.1201
     18 C           2.2907    0.2677    6.7766 C.ar    1  LIG1       -0.0196
     19 H           1.5770    0.5597    7.3316 H       1  LIG1        0.0654
     20 C           3.5759    0.2848    7.2538 C.ar    1  LIG1       -0.0533
     21 H           3.7402    0.5785    8.1420 H       1  LIG1        0.0622
     22 C           0.3600   -0.9163    3.9150 C.3     1  LIG1        0.0788
     23 H           0.7175   -0.4357    3.1391 H       1  LIG1        0.0660
     24 H          -0.6149   -0.9801    3.8399 H       1  LIG1        0.0660
     25 H           0.7446   -1.8173    3.9459 H       1  LIG1        0.0660
     26 C           6.0309   -2.8135    6.6387 C.3     1  LIG1       -0.0600
     27 H           6.4626   -3.5951    7.0435 H       1  LIG1        0.0233
     28 H           6.0904   -2.8764    5.6631 H       1  LIG1        0.0233
     29 H           5.0884   -2.7857    6.9074 H       1  LIG1        0.0233
     30 N           6.9329    0.8777    6.5300 N.3     1  LIG1       -0.1588
     31 H           7.7642    0.6648    6.1226 H       1  LIG1        0.1510
     32 O           5.6564    2.6096    7.7160 O.2     1  LIG1       -0.1298
     33 O           7.8086    3.1648    6.6122 O.2     1  LIG1       -0.1298
     34 O           7.8087    2.0284    8.6740 O.3     1  LIG1       -0.2249
     35 O           0.7004   -0.2120    5.1098 O.3     1  LIG1       -0.4951
     36 S           6.9870    2.2601    7.3484 S.O2    1  LIG1        0.1517
@<TRIPOS>BOND
     1    23    22    1
     2    16    15    1
     3    24    22    1
     4    22    25    1
     5    22    35    1
     6    14    13    1
     7    15    13   ar
     8    15    17   ar
     9    35    17    1
    10    13    12   ar
    11    17    18   ar
    12    28    26    1
    13    31    30    1
    14    12    11    1
    15    12    20   ar
    16    30    11    1
    17    30    36    1
    18    33    36    2
    19    26    29    1
    20    26    27    1
    21    26     9    1
    22    18    20   ar
    23    18    19    1
    24    10     9    1
    25    11     9    1
    26    11     7    1
    27     9     7    1
    28    20    21    1
    29    36    32    2
    30    36    34    1
    31     7     8    1
    32     7     4    1
    33    34     1    1
    34     6     4    1
    35     4     1    1
    36     4     5    1
    37     1     2    1
    38     1     3    1
