@<TRIPOS>MOLECULE
?
 55 58 0 0 0
SMALL
GASTEIGER

@<TRIPOS>ATOM
      1 C           5.8921    6.9907    3.6330 C.3     1  LIG1        0.1679
      2 O           6.8937    8.6297    5.1219 O.2     1  LIG1       -0.2496
      3 C           6.6304    7.6888    2.4623 C.3     1  LIG1       -0.0192
      4 H           6.1590    7.3771    1.6453 H       1  LIG1        0.0287
      5 H           6.5263    8.6260    2.4913 H       1  LIG1        0.0287
      6 O           5.2453    7.2867    5.8723 O.3     1  LIG1       -0.4672
      7 C           8.0667    7.1527    2.5171 C.3     1  LIG1       -0.0089
      8 H           8.5952    7.7524    3.1174 H       1  LIG1        0.0355
      9 O           3.7636    5.9264    3.1058 O.2     1  LIG1       -0.2496
     10 C           8.8239    7.0381    1.1772 C.3     1  LIG1       -0.0027
     11 O           3.9110    8.1740    3.2830 O.3     1  LIG1       -0.4672
     12 C          10.1519    6.3326    1.4763 C.ar    1  LIG1       -0.0334
     13 C          11.2826    6.5955    0.7016 C.ar    1  LIG1       -0.0574
     14 H          11.2203    7.1567    0.0117 H       1  LIG1        0.0621
     15 C          12.4890    5.9455    0.9406 C.ar    1  LIG1       -0.0609
     16 H          13.2665    6.1405    0.4100 H       1  LIG1        0.0618
     17 C          12.5746    5.0124    1.9700 C.ar    1  LIG1       -0.0534
     18 H          13.4009    4.5763    2.1412 H       1  LIG1        0.0624
     19 C          11.4553    4.7094    2.7563 C.ar    1  LIG1       -0.0105
     20 C          10.2271    5.3553    2.4986 C.ar    1  LIG1       -0.0136
     21 C           8.9992    4.9759    3.2189 C.2     1  LIG1       -0.0542
     22 H           8.9891    4.1508    3.6836 H       1  LIG1        0.0623
     23 C           7.9469    5.8064    3.1937 C.2     1  LIG1       -0.0634
     24 C           6.5533    5.5925    3.7268 C.3     1  LIG1       -0.0050
     25 H           6.5373    5.2772    4.5713 H       1  LIG1        0.0326
     26 H           6.0484    5.0201    3.1682 H       1  LIG1        0.0326
     27 C           9.0289    8.4414    0.5902 C.3     1  LIG1       -0.0552
     28 H           9.6482    8.9456    1.1585 H       1  LIG1        0.0238
     29 H           8.1681    8.9083    0.5506 H       1  LIG1        0.0238
     30 H           9.4013    8.3665   -0.3137 H       1  LIG1        0.0238
     31 C           8.0618    6.1788    0.1505 C.3     1  LIG1       -0.0552
     32 H           8.6033    6.0119   -0.6157 H       1  LIG1        0.0238
     33 H           7.9345    5.2405    0.4959 H       1  LIG1        0.0238
     34 H           7.2549    6.5813   -0.1276 H       1  LIG1        0.0238
     35 C          11.6145    3.7421    3.8737 C.ar    1  LIG1       -0.0173
     36 C          12.1207    2.4610    3.6374 C.ar    1  LIG1       -0.0540
     37 H          12.3050    2.1917    2.7373 H       1  LIG1        0.0624
     38 C          12.3234    1.5730    4.6951 C.ar    1  LIG1       -0.0612
     39 H          12.6305    0.6796    4.4308 H       1  LIG1        0.0618
     40 C          12.0338    1.9582    6.0027 C.ar    1  LIG1       -0.0617
     41 H          12.2156    1.3469    6.7229 H       1  LIG1        0.0618
     42 C          11.5348    3.2330    6.2478 C.ar    1  LIG1       -0.0612
     43 H          11.2753    3.5386    7.1538 H       1  LIG1        0.0618
     44 C          11.3200    4.1193    5.1904 C.ar    1  LIG1       -0.0540
     45 H          11.0340    5.0262    5.3536 H       1  LIG1        0.0624
     46 C           6.0869    7.7549    4.9394 C.2     1  LIG1        0.3243
     47 C           5.3269    7.9379    7.1676 C.3     1  LIG1        0.0817
     48 H           4.5961    7.6955    7.6822 H       1  LIG1        0.0661
     49 H           6.1914    7.7445    7.6393 H       1  LIG1        0.0661
     50 H           5.1620    8.8097    7.1004 H       1  LIG1        0.0661
     51 C           4.4026    6.9232    3.3242 C.2     1  LIG1        0.3243
     52 C           2.5093    8.2905    2.9826 C.3     1  LIG1        0.0817
     53 H           2.4145    7.9098    2.1438 H       1  LIG1        0.0661
     54 H           2.0049    7.8179    3.5769 H       1  LIG1        0.0661
     55 H           2.3781    9.3729    2.9235 H       1  LIG1        0.0661
@<TRIPOS>BOND
     1    32    31    1
     2    30    27    1
     3    34    31    1
     4    14    13    1
     5    31    33    1
     6    31    10    1
     7    16    15    1
     8    29    27    1
     9    27    28    1
    10    27    10    1
    11    13    15   ar
    12    13    12   ar
    13    15    17   ar
    14    10    12    1
    15    10     7    1
    16    12    20   ar
    17     4     3    1
    18    17    18    1
    19    17    19   ar
    20    53    52    1
    21     3     5    1
    22     3     7    1
    23     3     1    1
    24    20    19   ar
    25    20    21    1
    26     7     8    1
    27     7    23    1
    28    37    36    1
    29    19    35    1
    30    55    52    1
    31    52    11    1
    32    52    54    1
    33     9    51    2
    34    26    24    1
    35    23    21    2
    36    23    24    1
    37    21    22    1
    38    11    51    1
    39    51     1    1
    40     1    24    1
    41     1    46    1
    42    36    35   ar
    43    36    38   ar
    44    24    25    1
    45    35    44   ar
    46    39    38    1
    47    38    40   ar
    48    46     2    2
    49    46     6    1
    50    44    45    1
    51    44    42   ar
    52     6    47    1
    53    40    42   ar
    54    40    41    1
    55    42    43    1
    56    50    47    1
    57    47    49    1
    58    47    48    1
