@<TRIPOS>MOLECULE
?
 78 80 0 0 0
SMALL
GASTEIGER

@<TRIPOS>ATOM
      1 I           6.5989    9.4521    2.4814 I       1  LIG1       -0.0419
      2 N           3.7529    8.1083    1.6709 N.am    1  LIG1       -0.2636
      3 C           4.8604    9.1347    3.6201 C.ar    1  LIG1        0.0353
      4 O           3.6944    8.5616   -0.5519 O.2     1  LIG1       -0.2755
      5 I           6.7107    1.1545    7.2194 I       2  LIG2       -0.0419
      6 N           5.8435    4.2682    7.6613 N.am    2  LIG2       -0.2636
      7 C           3.7139    8.5661    3.0205 C.ar    1  LIG1        0.0529
      8 O           5.7595    4.3939    9.9088 O.2     2  LIG2       -0.2755
      9 C           2.5594    8.4527    3.7710 C.ar    1  LIG1       -0.0278
     10 C           2.5746    8.8373    5.0964 C.ar    1  LIG1       -0.0541
     11 H           1.7875    8.7504    5.6036 H       1  LIG1        0.0623
     12 C           3.7138    9.3465    5.7055 C.ar    1  LIG1       -0.0491
     13 C           4.8435    9.5181    4.9381 C.ar    1  LIG1       -0.0439
     14 H           5.6116    9.9014    5.3189 H       1  LIG1        0.0631
     15 C           4.1530    6.6947    1.3670 C.3     1  LIG1        0.0492
     16 H           4.8706    6.7319    0.6863 H       1  LIG1        0.0548
     17 C           3.0094    5.9339    0.7655 C.2     1  LIG1       -0.0673
     18 H           2.3923    6.4011    0.2300 H       1  LIG1        0.0587
     19 C           2.8279    4.6449    0.9484 C.2     1  LIG1       -0.0862
     20 H           2.0895    4.2346    0.5355 H       1  LIG1        0.0570
     21 C           3.7416    3.7970    1.7837 C.3     1  LIG1       -0.0346
     22 H           3.2751    3.5272    2.6020 H       1  LIG1        0.0307
     23 H           3.9724    2.9844    1.2859 H       1  LIG1        0.0307
     24 C           4.9974    4.5264    2.1476 C.3     1  LIG1       -0.0476
     25 H           5.6057    4.5276    1.3783 H       1  LIG1        0.0269
     26 H           5.4422    4.0570    2.8829 H       1  LIG1        0.0269
     27 C           4.7114    5.9761    2.5699 C.3     1  LIG1       -0.0301
     28 H           4.0639    5.9933    3.3052 H       1  LIG1        0.0286
     29 H           5.5364    6.4104    2.8716 H       1  LIG1        0.0286
     30 C           3.5823    8.9500    0.5958 C.2     1  LIG1        0.2172
     31 C           3.2088   10.3846    0.9239 C.3     1  LIG1        0.0127
     32 H           3.1103   10.8895    0.1018 H       1  LIG1        0.0323
     33 H           3.9067   10.7844    1.4669 H       1  LIG1        0.0323
     34 H           2.3718   10.3967    1.4141 H       1  LIG1        0.0323
     35 C           1.2891    7.9089    3.1714 C.3     1  LIG1       -0.0379
     36 H           1.4380    7.6926    2.2381 H       1  LIG1        0.0278
     37 H           0.5872    8.5749    3.2411 H       1  LIG1        0.0278
     38 H           1.0222    7.1074    3.6503 H       1  LIG1        0.0278
     39 C           3.7303    9.7118    7.1893 C.3     1  LIG1       -0.0397
     40 H           4.6064   10.0528    7.4307 H       1  LIG1        0.0278
     41 H           3.5343    8.9224    7.7192 H       1  LIG1        0.0278
     42 H           3.0602   10.3917    7.3628 H       1  LIG1        0.0278
     43 C           7.0517    2.8706    6.0580 C.ar    2  LIG2        0.0353
     44 C           6.6248    4.1142    6.4755 C.ar    2  LIG2        0.0529
     45 C           6.9618    5.2474    5.7187 C.ar    2  LIG2       -0.0278
     46 C           7.6942    5.0580    4.5553 C.ar    2  LIG2       -0.0541
     47 H           7.9251    5.8087    4.0387 H       2  LIG2        0.0623
     48 C           8.0963    3.8149    4.1292 C.ar    2  LIG2       -0.0491
     49 C           7.7886    2.7291    4.8853 C.ar    2  LIG2       -0.0439
     50 H           8.0751    1.8760    4.6157 H       2  LIG2        0.0631
     51 C           4.3381    4.1799    7.5966 C.3     2  LIG2        0.0492
     52 H           4.0517    3.5019    8.2584 H       2  LIG2        0.0548
     53 C           3.6984    5.4775    7.9775 C.2     2  LIG2       -0.0673
     54 H           4.0804    5.9696    8.6807 H       2  LIG2        0.0587
     55 C           2.6356    5.9671    7.3854 C.2     2  LIG2       -0.0862
     56 H           2.3040    6.7969    7.6758 H       2  LIG2        0.0570
     57 C           1.9268    5.2660    6.2730 C.3     2  LIG2       -0.0346
     58 H           0.9597    5.3158    6.4238 H       2  LIG2        0.0307
     59 H           2.1244    5.7207    5.4283 H       2  LIG2        0.0307
     60 C           2.3336    3.8439    6.1712 C.3     2  LIG2       -0.0476
     61 H           2.0113    3.4705    5.3246 H       2  LIG2        0.0269
     62 H           1.9302    3.3342    6.9046 H       2  LIG2        0.0269
     63 C           3.8572    3.7198    6.2390 C.3     2  LIG2       -0.0301
     64 H           4.1212    2.7876    6.0920 H       2  LIG2        0.0286
     65 H           4.2665    4.2689    5.5377 H       2  LIG2        0.0286
     66 C           6.4273    4.3505    8.9032 C.2     2  LIG2        0.2172
     67 C           7.9267    4.4082    8.9372 C.3     2  LIG2        0.0127
     68 H           8.2260    4.4683    9.8573 H       2  LIG2        0.0323
     69 H           8.2319    5.1869    8.4469 H       2  LIG2        0.0323
     70 H           8.2905    3.6063    8.5299 H       2  LIG2        0.0323
     71 C           6.7475    6.7247    6.1410 C.3     2  LIG2       -0.0379
     72 H           7.0588    7.3108    5.4339 H       2  LIG2        0.0278
     73 H           7.2469    6.9035    6.9536 H       2  LIG2        0.0278
     74 H           5.8040    6.8815    6.3013 H       2  LIG2        0.0278
     75 C           8.8647    3.6361    2.8188 C.3     2  LIG2       -0.0397
     76 H           9.0781    2.6980    2.6943 H       2  LIG2        0.0278
     77 H           9.6855    4.1526    2.8508 H       2  LIG2        0.0278
     78 H           8.3180    3.9443    2.0797 H       2  LIG2        0.0278
@<TRIPOS>BOND
     1     4    30    2
     2    32    31    1
     3    18    17    1
     4    20    19    1
     5    30    31    1
     6    30     2   am
     7    16    15    1
     8    17    19    2
     9    17    15    1
    10    31    34    1
    11    31    33    1
    12    19    21    1
    13    23    21    1
    14    15     2    1
    15    15    27    1
    16    25    24    1
    17     2     7    1
    18    21    24    1
    19    21    22    1
    20    78    75    1
    21    24    27    1
    22    24    26    1
    23    36    35    1
    24     1     3    1
    25    27    29    1
    26    27    28    1
    27    76    75    1
    28    75    77    1
    29    75    48    1
    30     7     3   ar
    31     7     9   ar
    32    35    37    1
    33    35    38    1
    34    35     9    1
    35     3    13   ar
    36     9    10   ar
    37    47    46    1
    38    48    46   ar
    39    48    49   ar
    40    46    45   ar
    41    50    49    1
    42    49    43   ar
    43    13    14    1
    44    13    12   ar
    45    10    11    1
    46    10    12   ar
    47    61    60    1
    48    59    57    1
    49    72    71    1
    50    65    63    1
    51    12    39    1
    52    45    71    1
    53    45    44   ar
    54    43    44   ar
    55    43     5    1
    56    64    63    1
    57    71    74    1
    58    71    73    1
    59    60    63    1
    60    60    57    1
    61    60    62    1
    62    63    51    1
    63    57    58    1
    64    57    55    1
    65    44     6    1
    66    39    42    1
    67    39    40    1
    68    39    41    1
    69    55    56    1
    70    55    53    2
    71    51     6    1
    72    51    53    1
    73    51    52    1
    74     6    66   am
    75    53    54    1
    76    69    67    1
    77    70    67    1
    78    66    67    1
    79    66     8    2
    80    67    68    1
