@<TRIPOS>MOLECULE
?
 127 141 0 0 0
SMALL
GASTEIGER

@<TRIPOS>ATOM
      1 O           0.9871    1.3652   11.9063 O.3     1  LIG1       -0.3315
      2 O           3.1742    1.2106   11.3010 O.3     1  LIG1       -0.3315
      3 O           2.4303    0.8600   14.2531 O.3     1  LIG1       -0.3765
      4 H           2.0884    1.5209   14.1059 H       1  LIG1        0.2112
      5 O           1.6249   -0.2998    9.4223 O.3     1  LIG1       -0.3765
      6 H           1.8360    0.4516    9.3304 H       1  LIG1        0.2112
      7 C           2.0846    2.1097   11.3952 C.3     1  LIG1        0.2248
      8 C           1.7471    2.7009   10.0318 C.ar    1  LIG1        0.0159
      9 C           2.7537    2.7837    9.0699 C.ar    1  LIG1       -0.0531
     10 H           3.6371    2.3861    9.2878 H       1  LIG1        0.0622
     11 C           2.4987    3.3857    7.8434 C.ar    1  LIG1       -0.0613
     12 H           3.2067    3.3615    7.1065 H       1  LIG1        0.0618
     13 C           1.2446    3.9193    7.6084 C.ar    1  LIG1       -0.0617
     14 H           1.0630    4.3549    6.7850 H       1  LIG1        0.0618
     15 C           0.2745    3.8223    8.5509 C.ar    1  LIG1       -0.0613
     16 H          -0.5834    4.1093    8.4730 H       1  LIG1        0.0618
     17 C           0.4976    3.2237    9.7697 C.ar    1  LIG1       -0.0531
     18 H          -0.1881    3.0960   10.4116 H       1  LIG1        0.0622
     19 C           2.4560    3.2585   12.3341 C.ar    1  LIG1        0.0159
     20 C           3.7625    3.6756   12.4209 C.ar    1  LIG1       -0.0531
     21 H           4.4778    3.2242   11.9026 H       1  LIG1        0.0622
     22 C           4.0926    4.7552   13.2408 C.ar    1  LIG1       -0.0613
     23 H           5.0349    5.0323   13.2816 H       1  LIG1        0.0618
     24 C           3.1073    5.4337   13.9337 C.ar    1  LIG1       -0.0617
     25 H           3.4146    6.2317   14.5614 H       1  LIG1        0.0618
     26 C           1.7969    5.0260   13.8300 C.ar    1  LIG1       -0.0613
     27 H           1.0396    5.4730   14.2572 H       1  LIG1        0.0618
     28 C           1.4777    3.9250   13.0345 C.ar    1  LIG1       -0.0531
     29 H           0.5691    3.6360   13.0767 H       1  LIG1        0.0622
     30 C           1.3900    0.0350   12.2480 C.3     1  LIG1        0.1290
     31 H           0.7154   -0.5672   11.8758 H       1  LIG1        0.0660
     32 C           1.4905   -0.1241   13.7935 C.3     1  LIG1        0.1456
     33 C           0.1546    0.1335   14.5310 C.ar    1  LIG1       -0.0008
     34 C          -0.9691    0.4548   13.8508 C.ar    1  LIG1       -0.0471
     35 H          -0.9969    0.5166   12.9239 H       1  LIG1        0.0628
     36 C          -2.2321    0.6736   14.4987 C.ar    1  LIG1       -0.0169
     37 C          -3.3662    1.0287   13.7471 C.ar    1  LIG1       -0.0540
     38 H          -3.2157    1.1632   12.7174 H       1  LIG1        0.0624
     39 C          -4.5758    1.2371   14.3471 C.ar    1  LIG1       -0.0612
     40 H          -5.3409    1.4830   13.8065 H       1  LIG1        0.0618
     41 C          -4.6849    1.0834   15.7328 C.ar    1  LIG1       -0.0611
     42 H          -5.5149    1.1307   16.1564 H       1  LIG1        0.0618
     43 C          -3.5946    0.7386   16.4879 C.ar    1  LIG1       -0.0534
     44 H          -3.7445    0.7478   17.4157 H       1  LIG1        0.0624
     45 C          -2.3376    0.5217   15.8861 C.ar    1  LIG1       -0.0102
     46 C          -1.1408    0.2016   16.6474 C.ar    1  LIG1       -0.0098
     47 C          -1.1804    0.0721   18.0527 C.ar    1  LIG1       -0.0534
     48 H          -2.0624    0.1192   18.4969 H       1  LIG1        0.0624
     49 C          -0.0623   -0.1703   18.7848 C.ar    1  LIG1       -0.0611
     50 H          -0.0486   -0.2529   19.7310 H       1  LIG1        0.0618
     51 C           1.1725   -0.2868   18.1442 C.ar    1  LIG1       -0.0612
     52 H           1.9156   -0.4787   18.5993 H       1  LIG1        0.0618
     53 C           1.2583   -0.1790   16.7750 C.ar    1  LIG1       -0.0536
     54 H           1.9860   -0.2583   16.4165 H       1  LIG1        0.0624
     55 C           0.1054    0.0452   15.9766 C.ar    1  LIG1       -0.0110
     56 C           2.0936   -1.5014   14.1272 C.ar    1  LIG1       -0.0008
     57 C           1.3590   -2.7470   14.1029 C.ar    1  LIG1       -0.0110
     58 C           0.0017   -2.8247   13.6999 C.ar    1  LIG1       -0.0536
     59 H          -0.4903   -1.9977   13.4046 H       1  LIG1        0.0624
     60 C          -0.6845   -4.0248   13.6917 C.ar    1  LIG1       -0.0612
     61 H          -1.5039   -4.0695   13.3620 H       1  LIG1        0.0618
     62 C          -0.0329   -5.1916   14.0864 C.ar    1  LIG1       -0.0611
     63 H          -0.4642   -6.0366   14.0791 H       1  LIG1        0.0618
     64 C           1.2618   -5.1493   14.4668 C.ar    1  LIG1       -0.0534
     65 H           1.5717   -5.9535   14.7821 H       1  LIG1        0.0624
     66 C           1.9992   -3.9518   14.5061 C.ar    1  LIG1       -0.0098
     67 C           3.3815   -3.9281   14.9296 C.ar    1  LIG1       -0.0102
     68 C           4.0689   -5.0691   15.4164 C.ar    1  LIG1       -0.0534
     69 H           3.5850   -5.9282   15.4503 H       1  LIG1        0.0624
     70 C           5.4036   -4.9761   15.7572 C.ar    1  LIG1       -0.0611
     71 H           5.8534   -5.7187   16.1659 H       1  LIG1        0.0618
     72 C           6.1068   -3.7959   15.6172 C.ar    1  LIG1       -0.0612
     73 H           7.0578   -3.7426   15.8743 H       1  LIG1        0.0618
     74 C           5.4687   -2.6646   15.1743 C.ar    1  LIG1       -0.0540
     75 H           5.9279   -1.9056   15.1052 H       1  LIG1        0.0624
     76 C           4.0939   -2.7181   14.8465 C.ar    1  LIG1       -0.0169
     77 C           3.4159   -1.5276   14.4539 C.ar    1  LIG1       -0.0471
     78 H           3.9620   -0.7117   14.4747 H       1  LIG1        0.0628
     79 C           2.7541   -0.1353   11.5375 C.3     1  LIG1        0.1290
     80 H           3.3701   -0.5473   12.0696 H       1  LIG1        0.0660
     81 C           2.6583   -0.9257   10.1911 C.3     1  LIG1        0.1456
     82 C           2.1899   -2.3639   10.4917 C.ar    1  LIG1       -0.0008
     83 C           0.8968   -2.6827   10.2217 C.ar    1  LIG1       -0.0471
     84 H           0.2883   -2.0772    9.9072 H       1  LIG1        0.0628
     85 C           0.3717   -3.9912   10.3857 C.ar    1  LIG1       -0.0169
     86 C          -0.9985   -4.2444   10.1049 C.ar    1  LIG1       -0.0540
     87 H          -1.5445   -3.4500    9.8663 H       1  LIG1        0.0624
     88 C          -1.4947   -5.5326   10.2130 C.ar    1  LIG1       -0.0612
     89 H          -2.4180   -5.7024   10.0649 H       1  LIG1        0.0618
     90 C          -0.6302   -6.5815   10.5424 C.ar    1  LIG1       -0.0611
     91 H          -0.9606   -7.4726   10.5456 H       1  LIG1        0.0618
     92 C           0.6896   -6.3525   10.8592 C.ar    1  LIG1       -0.0534
     93 H           1.2589   -7.0626   11.2690 H       1  LIG1        0.0624
     94 C           1.2143   -5.0289   10.7995 C.ar    1  LIG1       -0.0102
     95 C           2.5826   -4.7160   11.1498 C.ar    1  LIG1       -0.0098
     96 C           3.4714   -5.7006   11.6550 C.ar    1  LIG1       -0.0534
     97 H           3.0834   -6.5026   11.6945 H       1  LIG1        0.0624
     98 C           4.7398   -5.4165   12.0249 C.ar    1  LIG1       -0.0611
     99 H           5.2859   -6.1666   12.4290 H       1  LIG1        0.0618
    100 C           5.2288   -4.1152   11.9125 C.ar    1  LIG1       -0.0612
    101 H           6.0066   -3.8799   12.1926 H       1  LIG1        0.0618
    102 C           4.3895   -3.1211   11.4452 C.ar    1  LIG1       -0.0536
    103 H           4.7244   -2.1874   11.3919 H       1  LIG1        0.0624
    104 C           3.0714   -3.3862   11.0214 C.ar    1  LIG1       -0.0110
    105 C           3.9653   -0.8912    9.3848 C.ar    1  LIG1       -0.0008
    106 C           4.0115   -1.4732    8.0442 C.ar    1  LIG1       -0.0110
    107 C           2.8793   -2.0490    7.4205 C.ar    1  LIG1       -0.0536
    108 H           2.1442   -2.0935    7.9277 H       1  LIG1        0.0624
    109 C           2.9603   -2.5945    6.1661 C.ar    1  LIG1       -0.0612
    110 H           2.1930   -3.0291    5.7543 H       1  LIG1        0.0618
    111 C           4.1688   -2.6066    5.4772 C.ar    1  LIG1       -0.0611
    112 H           4.2963   -3.0526    4.5533 H       1  LIG1        0.0618
    113 C           5.2778   -2.0518    6.0562 C.ar    1  LIG1       -0.0534
    114 H           5.9785   -2.1206    5.6298 H       1  LIG1        0.0624
    115 C           5.2413   -1.4761    7.3275 C.ar    1  LIG1       -0.0098
    116 C           6.4281   -0.9160    7.9220 C.ar    1  LIG1       -0.0102
    117 C           7.6982   -0.9028    7.2887 C.ar    1  LIG1       -0.0534
    118 H           7.7589   -1.3601    6.3311 H       1  LIG1        0.0624
    119 C           8.7976   -0.3360    7.9086 C.ar    1  LIG1       -0.0611
    120 H           9.7129   -0.4696    7.4706 H       1  LIG1        0.0618
    121 C           8.7125    0.2157    9.1673 C.ar    1  LIG1       -0.0612
    122 H           9.4239    0.5310    9.5337 H       1  LIG1        0.0618
    123 C           7.4900    0.2079    9.8288 C.ar    1  LIG1       -0.0540
    124 H           7.3803    0.6918   10.6984 H       1  LIG1        0.0624
    125 C           6.3472   -0.3470    9.1999 C.ar    1  LIG1       -0.0169
    126 C           5.0941   -0.3327    9.8902 C.ar    1  LIG1       -0.0471
    127 H           5.1071    0.0343   10.7504 H       1  LIG1        0.0628
@<TRIPOS>BOND
     1   112   111    1
     2   111   113   ar
     3   111   109   ar
     4   114   113    1
     5   110   109    1
     6   113   115   ar
     7   109   107   ar
     8   118   117    1
     9    14    13    1
    10    12    11    1
    11   117   119   ar
    12   117   116   ar
    13   115   116   ar
    14   115   106   ar
    15   107   108    1
    16   107   106   ar
    17   120   119    1
    18    13    11   ar
    19    13    15   ar
    20    11     9   ar
    21   119   121   ar
    22   116   125   ar
    23   106   105   ar
    24    16    15    1
    25    15    17   ar
    26     9    10    1
    27     9     8   ar
    28   121   122    1
    29   121   123   ar
    30   125   123   ar
    31   125   126   ar
    32     6     5    1
    33   105   126   ar
    34   105    81    1
    35     5    81    1
    36    17     8   ar
    37    17    18    1
    38   123   124    1
    39    87    86    1
    40   126   127    1
    41    84    83    1
    42     8     7    1
    43    89    88    1
    44    86    88   ar
    45    86    85   ar
    46    81    82    1
    47    81    79    1
    48    88    90   ar
    49    83    85   ar
    50    83    82   ar
    51    85    94   ar
    52    82   104   ar
    53    90    91    1
    54    90    92   ar
    55    94    92   ar
    56    94    95   ar
    57    92    93    1
    58   104    95   ar
    59   104   102   ar
    60    95    96   ar
    61     2     7    1
    62     2    79    1
    63   103   102    1
    64     7     1    1
    65     7    19    1
    66   102   100   ar
    67    79    80    1
    68    79    30    1
    69    96    97    1
    70    96    98   ar
    71    31    30    1
    72    21    20    1
    73     1    30    1
    74   100    98   ar
    75   100   101    1
    76    98    99    1
    77    30    32    1
    78    19    20   ar
    79    19    28   ar
    80    20    22   ar
    81    38    37    1
    82    35    34    1
    83    28    29    1
    84    28    26   ar
    85    22    23    1
    86    22    24   ar
    87    61    60    1
    88    59    58    1
    89    60    58   ar
    90    60    62   ar
    91    58    57   ar
    92    37    39   ar
    93    37    36   ar
    94    32    56    1
    95    32     3    1
    96    32    33    1
    97    40    39    1
    98    26    24   ar
    99    26    27    1
   100    34    36   ar
   101    34    33   ar
   102    24    25    1
   103    63    62    1
   104    62    64   ar
   105    57    56   ar
   106    57    66   ar
   107     4     3    1
   108    56    77   ar
   109    39    41   ar
   110    77    78    1
   111    77    76   ar
   112    64    66   ar
   113    64    65    1
   114    36    45   ar
   115    66    67   ar
   116    33    55   ar
   117    76    67   ar
   118    76    74   ar
   119    67    68   ar
   120    75    74    1
   121    74    72   ar
   122    68    69    1
   123    68    70   ar
   124    72    70   ar
   125    72    73    1
   126    41    42    1
   127    41    43   ar
   128    70    71    1
   129    45    43   ar
   130    45    46   ar
   131    55    46   ar
   132    55    53   ar
   133    54    53    1
   134    43    44    1
   135    46    47   ar
   136    53    51   ar
   137    47    48    1
   138    47    49   ar
   139    51    52    1
   140    51    49   ar
   141    49    50    1
