@<TRIPOS>MOLECULE
?
 15 16 0 0 0
SMALL
GASTEIGER

@<TRIPOS>ATOM
      1 O           0.6088    4.0601    6.5135 O.2     1  LIG1       -0.4598
      2 O          -1.5006    1.1510    6.1253 O.2     1  LIG1       -0.4486
      3 C           0.9641    4.6940    7.6796 C.ar    1  LIG1        0.0927
      4 H           1.4780    5.4913    7.7294 H       1  LIG1        0.1029
      5 C           0.4775    4.0215    8.7434 C.ar    1  LIG1       -0.0232
      6 H           0.5921    4.2476    9.6588 H       1  LIG1        0.0649
      7 C          -0.2389    2.9091    8.2280 C.ar    1  LIG1       -0.0128
      8 H          -0.7031    2.2516    8.7335 H       1  LIG1        0.0656
      9 C          -0.1351    2.9659    6.8819 C.ar    1  LIG1        0.1697
     10 C          -0.6261    2.1573    5.7991 C.ar    1  LIG1        0.1707
     11 C          -0.3976    2.1712    4.4530 C.ar    1  LIG1       -0.0121
     12 H           0.1747    2.7612    3.9784 H       1  LIG1        0.0657
     13 C          -1.1868    1.1312    3.9056 C.ar    1  LIG1       -0.0121
     14 H          -1.2466    0.8922    2.9883 H       1  LIG1        0.0657
     15 C          -1.8409    0.5407    4.9356 C.ar    1  LIG1        0.1707
@<TRIPOS>BOND
     1    14    13    1
     2    13    11   ar
     3    13    15   ar
     4    12    11    1
     5    11    10   ar
     6    15     2   ar
     7    10     2   ar
     8    10     9    1
     9     1     9   ar
    10     1     3   ar
    11     9     7   ar
    12     3     4    1
    13     3     5   ar
    14     7     8    1
    15     7     5   ar
    16     5     6    1
