@<TRIPOS>MOLECULE
L-Leucyl-L-Serine
 33 32 0 0 0
SMALL
GASTEIGER

@<TRIPOS>ATOM
      1 CA          7.3082    1.3116   -2.0152 C.3     1  LEU1        0.0534
      2 HA          7.8066    1.9258   -2.5946 H       1  LEU1        0.0949
      3 N           8.1269    0.0845   -1.8299 N.4     1  LEU1        0.2274
      4 H1          7.8329   -0.3629   -1.1192 H       1  LEU1        0.2002
      5 H2          8.9774    0.3126   -1.7065 H       1  LEU1        0.2002
      6 H3          8.0578   -0.4288   -2.5533 H       1  LEU1        0.2002
      7 C           7.1666    1.9633   -0.6419 C.2     1  LEU1        0.2619
      8 O           7.3424    1.3177    0.3877 O.2     1  LEU1       -0.2696
      9 N           6.7970    3.2481   -0.6769 N.am    2  UNK2       -0.2958
     10 H           6.8208    3.6710   -1.4249 H       2  UNK2        0.1498
     11 C           6.3585    3.9433    0.5166 C.3     2  UNK2        0.1481
     12 H           5.7117    3.3709    0.9799 H       2  UNK2        0.0639
     13 C           5.6472    5.2494    0.1286 C.2     2  UNK2        0.3781
     14 O           5.5076    5.5314   -1.0709 O.co2   2  UNK2       -0.2442
     15 O           5.3053    5.9701    1.0983 O.co2   2  UNK2       -0.2442
     16 CB          5.9765    0.9849   -2.6998 C.3     1  LEU1        0.0012
     17 HB1         5.4795    1.8127   -2.7962 H       1  LEU1        0.0327
     18 HB2         6.1715    0.6613   -3.5930 H       1  LEU1        0.0327
     19 CG          5.0632   -0.0349   -2.0196 C.3     1  LEU1       -0.0412
     20 HG          5.6137   -0.7760   -1.6936 H       1  LEU1        0.0298
     21 CD2         4.3051    0.5561   -0.8419 C.3     1  LEU1       -0.0625
     22 HD21        3.8317    1.3399   -1.1278 H       1  LEU1        0.0232
     23 HD22        4.9245    0.7917   -0.1479 H       1  LEU1        0.0232
     24 HD23        3.6802   -0.0911   -0.5066 H       1  LEU1        0.0232
     25 CD1         4.0883   -0.5796   -3.0667 C.3     1  LEU1       -0.0625
     26 HD11        3.5342   -1.2551   -2.6680 H       1  LEU1        0.0232
     27 HD12        4.5817   -0.9613   -3.7958 H       1  LEU1        0.0232
     28 HD13        3.5369    0.1351   -3.3933 H       1  LEU1        0.0232
     29 C           7.5170    4.2203    1.4755 C.3     2  UNK2        0.0731
     30 H           8.1258    3.4652    1.4717 H       2  UNK2        0.0581
     31 H           8.0061    5.0014    1.1728 H       2  UNK2        0.0581
     32 O           7.0495    4.4403    2.7937 O.3     2  UNK2       -0.3926
     33 H           6.5079    5.0548    2.7925 H       2  UNK2        0.2095
@<TRIPOS>BOND
     1    27    25    1
     2    18    16    1
     3    28    25    1
     4    25    26    1
     5    25    19    1
     6    17    16    1
     7    16    19    1
     8    16     1    1
     9     2     1    1
    10     6     3    1
    11    19    20    1
    12    19    21    1
    13     1     3    1
    14     1     7    1
    15     3     5    1
    16     3     4    1
    17    10     9    1
    18    22    21    1
    19    14    13   ar
    20    21    24    1
    21    21    23    1
    22     9     7   am
    23     9    11    1
    24     7     8    2
    25    13    11    1
    26    13    15   ar
    27    11    12    1
    28    11    29    1
    29    31    29    1
    30    30    29    1
    31    29    32    1
    32    33    32    1
