@<TRIPOS>MOLECULE
?
 62 66 0 0 0
SMALL
GASTEIGER

@<TRIPOS>ATOM
      1 C           6.7765    0.1293    3.0625 C.ar    1  LIG1       -0.0524
      2 H           6.1932    0.8733    3.1547 H       1  LIG1        0.0624
      3 C           7.0839   -0.6604    4.1707 C.ar    1  LIG1       -0.0611
      4 H           6.7227   -0.4429    5.0223 H       1  LIG1        0.0618
      5 C           7.9153   -1.7620    4.0319 C.ar    1  LIG1       -0.0617
      6 H           8.1262   -2.2957    4.7891 H       1  LIG1        0.0618
      7 C           8.4412   -2.0867    2.7876 C.ar    1  LIG1       -0.0611
      8 H           8.9976   -2.8509    2.6929 H       1  LIG1        0.0618
      9 C           8.1559   -1.2978    1.6832 C.ar    1  LIG1       -0.0524
     10 H           8.5231   -1.5186    0.8344 H       1  LIG1        0.0624
     11 C           7.3284   -0.1777    1.8172 C.ar    1  LIG1        0.0051
     12 C           7.1014    0.6852    0.6502 C.2     1  LIG1        0.1305
     13 C           5.8478    1.4961    0.4124 C.2     1  LIG1        0.2672
     14 C           5.1789    3.0130   -1.4406 C.3     1  LIG1        0.0063
     15 H           4.3062    2.9964   -0.9944 H       1  LIG1        0.0429
     16 H           5.0705    2.7557   -2.3797 H       1  LIG1        0.0429
     17 H           5.5542    3.9171   -1.3910 H       1  LIG1        0.0429
     18 C           7.3903    1.7214   -1.3076 C.3     1  LIG1        0.1687
     19 C           8.2532    2.9507   -1.4251 C.2     1  LIG1       -0.0312
     20 H           8.3764    3.4994   -0.6595 H       1  LIG1        0.0617
     21 C           8.8502    3.2959   -2.5651 C.2     1  LIG1       -0.0147
     22 H           9.3591    4.0974   -2.5957 H       1  LIG1        0.0654
     23 C           8.7428    2.4670   -3.7816 C.2     1  LIG1        0.1787
     24 C           7.8648    1.2908   -3.7146 C.2     1  LIG1       -0.0147
     25 H           7.7340    0.7667   -4.4965 H       1  LIG1        0.0654
     26 C           7.2476    0.9393   -2.5882 C.2     1  LIG1       -0.0312
     27 H           6.6962    0.1654   -2.5923 H       1  LIG1        0.0617
     28 C           0.2785    4.0384    2.6775 C.ar    2  LIG2       -0.0524
     29 H           0.4232    4.9733    2.5912 H       2  LIG2        0.0624
     30 C           0.4371    3.1999    1.5726 C.ar    2  LIG2       -0.0611
     31 H           0.6769    3.5683    0.7304 H       2  LIG2        0.0618
     32 C           0.2463    1.8320    1.6988 C.ar    2  LIG2       -0.0617
     33 H           0.3534    1.2659    0.9430 H       2  LIG2        0.0618
     34 C          -0.1006    1.2899    2.9294 C.ar    2  LIG2       -0.0611
     35 H          -0.2168    0.3511    3.0186 H       2  LIG2        0.0618
     36 C          -0.2772    2.1163    4.0280 C.ar    2  LIG2       -0.0524
     37 H          -0.5235    1.7424    4.8657 H       2  LIG2        0.0624
     38 C          -0.0940    3.4978    3.9091 C.ar    2  LIG2        0.0051
     39 C          -0.3504    4.3484    5.0775 C.2     2  LIG2        0.1305
     40 C           0.3075    5.6858    5.3323 C.2     2  LIG2        0.2672
     41 C           0.0970    7.3170    7.1968 C.3     2  LIG2        0.0063
     42 H           0.8922    7.7218    6.7928 H       2  LIG2        0.0429
     43 H           0.2660    7.1418    8.1461 H       2  LIG2        0.0429
     44 H          -0.6624    7.9297    7.1083 H       2  LIG2        0.0429
     45 C          -1.1395    5.0754    7.0407 C.3     2  LIG2        0.1687
     46 C          -2.5268    5.6495    7.1799 C.2     2  LIG2       -0.0312
     47 H          -2.9233    6.0743    6.4282 H       2  LIG2        0.0617
     48 C          -3.2180    5.5834    8.3202 C.2     2  LIG2       -0.0147
     49 H          -4.0850    5.9696    8.3598 H       2  LIG2        0.0654
     50 C          -2.6685    4.9259    9.5180 C.2     2  LIG2        0.1787
     51 C          -1.2870    4.4263    9.4398 C.2     2  LIG2       -0.0147
     52 H          -0.8833    4.0604   10.2183 H       2  LIG2        0.0654
     53 C          -0.5878    4.4731    8.3067 C.2     2  LIG2       -0.0312
     54 H           0.2911    4.1131    8.2970 H       2  LIG2        0.0617
     55 N           6.0749    2.0806   -0.7845 N.am    1  LIG1       -0.2682
     56 N           7.9660    0.8172   -0.2923 N.2     1  LIG1       -0.2445
     57 N          -0.2063    6.0709    6.5226 N.am    2  LIG2       -0.2682
     58 N          -1.1694    4.0149    6.0136 N.2     2  LIG2       -0.2445
     59 O           4.8493    1.5999    1.1164 O.2     1  LIG1       -0.2682
     60 O           9.3763    2.7400   -4.7968 O.2     1  LIG1       -0.2879
     61 O           1.1230    6.2862    4.6440 O.2     2  LIG2       -0.2682
     62 O          -3.3438    4.7761   10.5339 O.2     2  LIG2       -0.2879
@<TRIPOS>BOND
     1    60    23    2
     2    25    24    1
     3    23    24    1
     4    23    21    1
     5    24    26    2
     6    22    21    1
     7    27    26    1
     8    26    18    1
     9    21    19    2
    10    16    14    1
    11    14    17    1
    12    14    15    1
    13    14    55    1
    14    19    18    1
    15    19    20    1
    16    18    55    1
    17    18    56    1
    18    55    13   am
    19    56    12    2
    20    13    12    1
    21    13    59    2
    22    12    11    1
    23    31    30    1
    24    10     9    1
    25    33    32    1
    26    30    32   ar
    27    30    28   ar
    28     9    11   ar
    29     9     7   ar
    30    32    34   ar
    31    11     1   ar
    32    29    28    1
    33    28    38   ar
    34     8     7    1
    35     7     5   ar
    36    34    35    1
    37    34    36   ar
    38     1     2    1
    39     1     3   ar
    40    38    36   ar
    41    38    39    1
    42    36    37    1
    43     5     3   ar
    44     5     6    1
    45     3     4    1
    46    61    40    2
    47    39    40    1
    48    39    58    2
    49    40    57   am
    50    58    45    1
    51    47    46    1
    52    57    45    1
    53    57    41    1
    54    42    41    1
    55    45    46    1
    56    45    53    1
    57    44    41    1
    58    46    48    2
    59    41    43    1
    60    54    53    1
    61    53    51    2
    62    48    49    1
    63    48    50    1
    64    51    50    1
    65    51    52    1
    66    50    62    2
