@<TRIPOS>MOLECULE
?
 102 107 0 0 0
SMALL
GASTEIGER

@<TRIPOS>ATOM
      1 F           7.7391   10.5885    5.8278 F       1  LIG1        0.0000
      2 F           9.6386   12.4163    6.2783 F       1  LIG1        0.0000
      3 F          10.1604   14.3372    4.4241 F       1  LIG1        0.0000
      4 F           8.8210   14.3232    2.0645 F       1  LIG1        0.0000
      5 F           7.0239   12.4396    1.5251 F       1  LIG1        0.0000
      6 F           4.5318   12.7092    2.7994 F       1  LIG1        0.0000
      7 F           2.7658   14.0139    4.3066 F       1  LIG1        0.0000
      8 F           2.1755   13.1591    6.8081 F       1  LIG1        0.0000
      9 F           3.3198   10.8534    7.7406 F       1  LIG1        0.0000
     10 F           5.0130    9.4838    6.2286 F       1  LIG1        0.0000
     11 F           3.2130   10.1907    2.3501 F       1  LIG1        0.0000
     12 F           2.5965    9.4716   -0.1165 F       1  LIG1        0.0000
     13 F           4.5333    8.8245   -1.9025 F       1  LIG1        0.0000
     14 F           7.1487    8.8914   -1.1355 F       1  LIG1        0.0000
     15 F           7.8041    9.6432    1.3437 F       1  LIG1        0.0000
     16 F          11.3885    8.2367    3.3825 F       1  LIG1        0.0000
     17 F          12.7692   10.1205    4.6604 F       1  LIG1        0.0000
     18 F          12.1163   10.8427    7.1880 F       1  LIG1        0.0000
     19 F          10.0466    9.6028    8.4530 F       1  LIG1        0.0000
     20 F           8.7032    7.6418    7.2326 F       1  LIG1        0.0000
     21 F           7.5534    6.7879    1.9254 F       1  LIG1        0.0000
     22 F           8.3508    5.6816   -0.3331 F       1  LIG1        0.0000
     23 F          10.7247    4.3601   -0.4882 F       1  LIG1        0.0000
     24 F          12.3292    4.2273    1.7129 F       1  LIG1        0.0000
     25 F          11.5435    5.3224    4.0162 F       1  LIG1        0.0000
     26 F          10.9751    5.6378    6.7612 F       1  LIG1        0.0000
     27 F          10.7641    3.3611    8.0667 F       1  LIG1        0.0000
     28 F           8.6514    1.6871    7.6435 F       1  LIG1        0.0000
     29 F           6.7562    2.3683    5.8006 F       1  LIG1        0.0000
     30 F           6.9548    4.6473    4.4395 F       1  LIG1        0.0000
     31 O           6.3388    8.9463    4.0760 O.3     1  LIG1        0.0000
     32 O           7.6370    7.2536    4.5590 O.3     1  LIG1        0.0000
     33 N           4.5360    6.5389    5.2377 N.4     2  LIG2        1.0000
     34 H           5.3496    6.1393    5.0786 H       2  LIG2        0.0000
     35 H           4.6777    7.4474    5.2163 H       2  LIG2        0.0000
     36 C           7.4796    8.4229    4.0956 C.3     1  LIG1        0.0000
     37 H           8.2277    8.9055    3.7633 H       1  LIG1        0.0000
     38 C           7.3084   11.3966    3.6387 C.ar    1  LIG1        0.0000
     39 C           8.0088   11.4789    4.8377 C.ar    1  LIG1        0.0000
     40 C           8.9779   12.4217    5.1099 C.ar    1  LIG1        0.0000
     41 C           9.2483   13.3880    4.1730 C.ar    1  LIG1        0.0000
     42 C           8.5686   13.3728    2.9748 C.ar    1  LIG1        0.0000
     43 C           7.6361   12.3849    2.7228 C.ar    1  LIG1        0.0000
     44 C           4.8655   11.0330    4.4290 C.ar    1  LIG1        0.0000
     45 C           4.2460   12.1963    4.0179 C.ar    1  LIG1        0.0000
     46 C           3.3343   12.8969    4.7739 C.ar    1  LIG1        0.0000
     47 C           3.0308   12.4680    6.0415 C.ar    1  LIG1        0.0000
     48 C           3.6130   11.3092    6.5076 C.ar    1  LIG1        0.0000
     49 C           4.4992   10.6217    5.6996 C.ar    1  LIG1        0.0000
     50 C           5.5560   10.0227    1.9609 C.ar    1  LIG1        0.0000
     51 C           4.2420    9.9287    1.5129 C.ar    1  LIG1        0.0000
     52 C           3.8927    9.5440    0.2359 C.ar    1  LIG1        0.0000
     53 C           4.8628    9.2124   -0.6668 C.ar    1  LIG1        0.0000
     54 C           6.1793    9.2536   -0.2761 C.ar    1  LIG1        0.0000
     55 C           6.4926    9.6472    1.0038 C.ar    1  LIG1        0.0000
     56 C          10.0114    7.8058    5.2630 C.ar    1  LIG1        0.0000
     57 C          11.0405    8.5032    4.6558 C.ar    1  LIG1        0.0000
     58 C          11.7592    9.5088    5.2864 C.ar    1  LIG1        0.0000
     59 C          11.4402    9.8635    6.5660 C.ar    1  LIG1        0.0000
     60 C          10.3962    9.2387    7.2088 C.ar    1  LIG1        0.0000
     61 C           9.7181    8.2272    6.5569 C.ar    1  LIG1        0.0000
     62 C           9.5154    6.1152    3.1059 C.ar    1  LIG1        0.0000
     63 C           8.7517    6.1674    1.9467 C.ar    1  LIG1        0.0000
     64 C           9.1538    5.5893    0.7437 C.ar    1  LIG1        0.0000
     65 C          10.3391    4.9261    0.6604 C.ar    1  LIG1        0.0000
     66 C          11.1498    4.8561    1.7782 C.ar    1  LIG1        0.0000
     67 C          10.7181    5.4327    2.9530 C.ar    1  LIG1        0.0000
     68 C           8.9628    5.2857    5.5351 C.ar    1  LIG1        0.0000
     69 C           9.9015    4.8787    6.4765 C.ar    1  LIG1        0.0000
     70 C           9.8228    3.6806    7.1706 C.ar    1  LIG1        0.0000
     71 C           8.7577    2.8362    6.9547 C.ar    1  LIG1        0.0000
     72 C           7.7994    3.1850    6.0323 C.ar    1  LIG1        0.0000
     73 C           7.9317    4.3816    5.3515 C.ar    1  LIG1        0.0000
     74 C           4.1287    6.1795    6.6762 C.3     2  LIG2        0.0000
     75 C           3.6904    4.7173    6.6538 C.3     2  LIG2        0.0000
     76 H           4.4824    4.1485    6.4868 H       2  LIG2        0.0000
     77 H           3.3286    4.4784    7.5439 H       2  LIG2        0.0000
     78 C           2.6370    4.4193    5.5964 C.3     2  LIG2        0.0000
     79 H           1.8240    4.9550    5.7758 H       2  LIG2        0.0000
     80 H           2.3874    3.4613    5.6364 H       2  LIG2        0.0000
     81 C           3.1755    4.7507    4.2114 C.3     2  LIG2        0.0000
     82 H           3.9420    4.1555    4.0181 H       2  LIG2        0.0000
     83 H           2.4713    4.5592    3.5430 H       2  LIG2        0.0000
     84 C           3.6259    6.1961    4.0465 C.3     2  LIG2        0.0000
     85 C           3.0081    7.1029    7.1629 C.3     2  LIG2        0.0000
     86 H           2.9194    7.0231    8.1361 H       2  LIG2        0.0000
     87 H           2.1654    6.8452    6.7347 H       2  LIG2        0.0000
     88 H           3.2236    8.0289    6.9293 H       2  LIG2        0.0000
     89 C           5.3889    6.3940    7.5110 C.3     2  LIG2        0.0000
     90 H           5.2061    6.1595    8.4442 H       2  LIG2        0.0000
     91 H           5.6605    7.3332    7.4561 H       2  LIG2        0.0000
     92 H           6.1090    5.8250    7.1668 H       2  LIG2        0.0000
     93 C           2.4697    7.1861    3.9730 C.3     2  LIG2        0.0000
     94 H           2.0080    7.0852    3.1143 H       2  LIG2        0.0000
     95 H           2.8149    8.0985    4.0543 H       2  LIG2        0.0000
     96 H           1.8404    7.0092    4.7033 H       2  LIG2        0.0000
     97 C           4.4984    6.3433    2.8042 C.3     2  LIG2        0.0000
     98 H           3.9924    6.0593    2.0142 H       2  LIG2        0.0000
     99 H           5.2971    5.7840    2.8991 H       2  LIG2        0.0000
    100 H           4.7653    7.2804    2.7028 H       2  LIG2        0.0000
    101 B           6.0213   10.3828    3.4824 B       1  LIG1        0.0000
    102 B           9.0905    6.6274    4.5997 B       1  LIG1        0.0000
@<TRIPOS>BOND
     1    13    53    1
     2    14    54    1
     3    53    54   ar
     4    53    52   ar
     5    23    65    1
     6    22    64    1
     7    54    55   ar
     8    12    52    1
     9    52    51   ar
    10    65    64   ar
    11    65    66   ar
    12    64    63   ar
    13    55    15    1
    14    55    50   ar
    15    51    50   ar
    16    51    11    1
    17     5    43    1
    18    24    66    1
    19    66    67   ar
    20    21    63    1
    21    63    62   ar
    22    50   101    1
    23    98    97    1
    24     4    42    1
    25   100    97    1
    26    43    42   ar
    27    43    38   ar
    28     6    45    1
    29    97    99    1
    30    97    84    1
    31    67    62   ar
    32    67    25    1
    33    42    41   ar
    34    62   102    1
    35    94    93    1
    36    16    57    1
    37   101    38    1
    38   101    31    1
    39   101    44    1
    40    83    81    1
    41    38    39   ar
    42    37    36    1
    43    93    84    1
    44    93    95    1
    45    93    96    1
    46    45    44   ar
    47    45    46   ar
    48    82    81    1
    49    84    81    1
    50    84    33    1
    51    31    36    1
    52    36    32    1
    53    41     3    1
    54    41    40   ar
    55    81    78    1
    56     7    46    1
    57    44    49   ar
    58    30    73    1
    59    32   102    1
    60   102    56    1
    61   102    68    1
    62    57    56   ar
    63    57    58   ar
    64    17    58    1
    65    46    47   ar
    66    39    40   ar
    67    39     1    1
    68    34    33    1
    69    40     2    1
    70    35    33    1
    71    33    74    1
    72    56    61   ar
    73    58    59   ar
    74    73    68   ar
    75    73    72   ar
    76    68    69   ar
    77    78    80    1
    78    78    79    1
    79    78    75    1
    80    49    10    1
    81    49    48   ar
    82    29    72    1
    83    72    71   ar
    84    47    48   ar
    85    47     8    1
    86    69    26    1
    87    69    70   ar
    88    76    75    1
    89    48     9    1
    90    61    60   ar
    91    61    20    1
    92    59    18    1
    93    59    60   ar
    94    75    74    1
    95    75    77    1
    96    74    85    1
    97    74    89    1
    98    87    85    1
    99    88    85    1
   100    71    70   ar
   101    71    28    1
   102    85    86    1
   103    92    89    1
   104    70    27    1
   105    60    19    1
   106    91    89    1
   107    89    90    1
