@<TRIPOS>MOLECULE
?
 82 87 0 0 0
SMALL
GASTEIGER

@<TRIPOS>ATOM
      1 O          -2.1203   -0.5505    0.8129 O.3     1  LIG1       -0.4584
      2 O           0.0409   -1.1893    1.0458 O.2     1  LIG1       -0.2500
      3 O          -0.0866    1.6545    3.3866 O.3     1  LIG1       -0.4574
      4 O           2.2712    1.2675   -7.1263 O.3     1  LIG1       -0.4951
      5 O          -1.2107   -0.1477    4.1502 O.2     1  LIG1       -0.2463
      6 O           0.2530   -0.2362    6.3983 O.3     1  LIG1       -0.4456
      7 O           1.2943   -1.2976    8.0852 O.2     1  LIG1       -0.2502
      8 C          -0.7985   -0.3371    0.9477 C.2     1  LIG1        0.3180
      9 C          -0.5141    1.1683    0.9695 C.3     1  LIG1        0.1111
     10 C          -1.0182    1.8132    2.2840 C.3     1  LIG1        0.1194
     11 H          -1.9079    1.4296    2.5317 H       1  LIG1        0.0745
     12 C          -1.1649    3.3112    1.9667 C.3     1  LIG1       -0.0143
     13 H          -0.3999    3.8206    2.3345 H       1  LIG1        0.0301
     14 H          -2.0016    3.6688    2.3567 H       1  LIG1        0.0301
     15 C          -1.1955    3.4162    0.4280 C.3     1  LIG1       -0.0451
     16 H          -1.9600    3.9694    0.1279 H       1  LIG1        0.0270
     17 H          -0.3569    3.8154    0.0856 H       1  LIG1        0.0270
     18 C          -1.3480    1.9645   -0.0576 C.3     1  LIG1       -0.0146
     19 H          -2.3059    1.7031    0.0596 H       1  LIG1        0.0318
     20 C          -0.9575    1.6649   -1.5025 C.3     1  LIG1       -0.0113
     21 H          -1.3391    0.7658   -1.7180 H       1  LIG1        0.0352
     22 C          -1.5833    2.6424   -2.4784 C.3     1  LIG1       -0.0419
     23 H          -2.5553    2.7125   -2.3009 H       1  LIG1        0.0274
     24 H          -1.1827    3.5391   -2.3528 H       1  LIG1        0.0274
     25 C          -1.3614    2.1818   -3.9022 C.3     1  LIG1       -0.0264
     26 H          -1.9336    1.3933   -4.0794 H       1  LIG1        0.0314
     27 H          -1.6394    2.9030   -4.5209 H       1  LIG1        0.0314
     28 C           0.0764    1.8194   -4.1856 C.ar    1  LIG1       -0.0365
     29 C           0.4843    1.7321   -5.5266 C.ar    1  LIG1       -0.0162
     30 H          -0.1381    1.9158   -6.2197 H       1  LIG1        0.0657
     31 C           1.7839    1.3808   -5.8503 C.ar    1  LIG1        0.1204
     32 C           2.6976    1.1194   -4.8221 C.ar    1  LIG1       -0.0194
     33 H           3.5948    0.8853   -5.0298 H       1  LIG1        0.0654
     34 C           2.2914    1.2024   -3.5071 C.ar    1  LIG1       -0.0506
     35 H           2.9206    1.0208   -2.8193 H       1  LIG1        0.0625
     36 C           0.9723    1.5482   -3.1488 C.ar    1  LIG1       -0.0185
     37 C           0.5269    1.5626   -1.7261 C.2     1  LIG1       -0.0405
     38 C           1.3873    1.4502   -0.6913 C.2     1  LIG1       -0.0788
     39 H           2.3130    1.3789   -0.8917 H       1  LIG1        0.0575
     40 C           0.9807    1.4303    0.7540 C.3     1  LIG1       -0.0146
     41 H           1.2148    2.3010    1.1639 H       1  LIG1        0.0319
     42 H           1.4988    0.7284    1.2216 H       1  LIG1        0.0319
     43 C          -2.6863   -1.9169    0.7874 C.3     1  LIG1        0.1052
     44 C          -2.4067   -2.6254    2.1027 C.3     1  LIG1       -0.0254
     45 H          -1.4461   -2.8046    2.1797 H       1  LIG1        0.0268
     46 H          -2.9002   -3.4717    2.1297 H       1  LIG1        0.0268
     47 H          -2.6933   -2.0571    2.8472 H       1  LIG1        0.0268
     48 C          -4.1716   -1.6437    0.6279 C.3     1  LIG1       -0.0254
     49 H          -4.4978   -1.1460    1.4073 H       1  LIG1        0.0268
     50 H          -4.6546   -2.4938    0.5569 H       1  LIG1        0.0268
     51 H          -4.3215   -1.1148   -0.1837 H       1  LIG1        0.0268
     52 C          -2.1397   -2.6761   -0.4088 C.3     1  LIG1       -0.0254
     53 H          -2.2872   -2.1509   -1.2235 H       1  LIG1        0.0268
     54 H          -2.6003   -3.5378   -0.4877 H       1  LIG1        0.0268
     55 H          -1.1796   -2.8285   -0.2886 H       1  LIG1        0.0268
     56 C           1.3582    1.4903   -8.1990 C.3     1  LIG1        0.0788
     57 H           0.5811    0.9032   -8.0935 H       1  LIG1        0.0660
     58 H           1.8014    1.2958   -9.0515 H       1  LIG1        0.0660
     59 H           1.0649    2.4249   -8.1896 H       1  LIG1        0.0660
     60 C          -0.3202    0.6454    4.2487 C.2     1  LIG1        0.3524
     61 C           0.7249    0.6579    5.3421 C.3     1  LIG1        0.2149
     62 C           1.0469    1.9932    6.0309 C.3     1  LIG1       -0.0006
     63 H           0.2990    2.2947    6.6054 H       1  LIG1        0.0310
     64 H           1.2586    2.7002    5.3713 H       1  LIG1        0.0310
     65 C           2.2943    1.6104    6.8749 C.3     1  LIG1       -0.0327
     66 H           2.1117    1.7073    7.8434 H       1  LIG1        0.0277
     67 H           3.0717    2.1741    6.6362 H       1  LIG1        0.0277
     68 C           2.5487    0.1176    6.4991 C.3     1  LIG1        0.0744
     69 C           1.3592   -0.5892    7.1263 C.2     1  LIG1        0.3148
     70 C           3.8903   -0.4561    6.8922 C.3     1  LIG1       -0.0488
     71 H           4.0053   -0.3834    7.8626 H       1  LIG1        0.0240
     72 H           4.6037    0.0416    6.4409 H       1  LIG1        0.0240
     73 H           3.9326   -1.3991    6.6275 H       1  LIG1        0.0240
     74 C           2.1233    0.0692    4.9985 C.3     1  LIG1        0.0310
     75 C           2.0373   -1.3515    4.4390 C.3     1  LIG1       -0.0546
     76 H           1.6221   -1.3282    3.5513 H       1  LIG1        0.0237
     77 H           1.4960   -1.9061    5.0384 H       1  LIG1        0.0237
     78 H           2.9382   -1.7301    4.3680 H       1  LIG1        0.0237
     79 C           2.9949    0.9310    4.0855 C.3     1  LIG1       -0.0546
     80 H           3.8896    0.5362    4.0198 H       1  LIG1        0.0237
     81 H           3.0637    1.8347    4.4575 H       1  LIG1        0.0237
     82 H           2.5909    0.9742    3.1935 H       1  LIG1        0.0237
@<TRIPOS>BOND
     1    58    56    1
     2    56    59    1
     3    56    57    1
     4    56     4    1
     5     4    31    1
     6    30    29    1
     7    31    29   ar
     8    31    32   ar
     9    29    28   ar
    10    33    32    1
    11    32    34   ar
    12    27    25    1
    13    28    25    1
    14    28    36   ar
    15    26    25    1
    16    25    22    1
    17    34    36   ar
    18    34    35    1
    19    36    37    1
    20    22    24    1
    21    22    23    1
    22    22    20    1
    23    37    20    1
    24    37    38    2
    25    21    20    1
    26    20    18    1
    27    53    52    1
    28    39    38    1
    29    38    40    1
    30    54    52    1
    31    52    55    1
    32    52    43    1
    33    51    48    1
    34    18    19    1
    35    18    15    1
    36    18     9    1
    37    17    15    1
    38    16    15    1
    39    15    12    1
    40    50    48    1
    41    48    43    1
    42    48    49    1
    43    40     9    1
    44    40    41    1
    45    40    42    1
    46    43     1    1
    47    43    44    1
    48     1     8    1
    49     8     9    1
    50     8     2    2
    51     9    10    1
    52    12    10    1
    53    12    13    1
    54    12    14    1
    55    44    46    1
    56    44    45    1
    57    44    47    1
    58    10    11    1
    59    10     3    1
    60    82    79    1
    61     3    60    1
    62    76    75    1
    63    80    79    1
    64    79    81    1
    65    79    74    1
    66     5    60    2
    67    60    61    1
    68    78    75    1
    69    75    74    1
    70    75    77    1
    71    74    61    1
    72    74    68    1
    73    61    62    1
    74    61     6    1
    75    64    62    1
    76    62    63    1
    77    62    65    1
    78     6    69    1
    79    72    70    1
    80    68    65    1
    81    68    70    1
    82    68    69    1
    83    73    70    1
    84    67    65    1
    85    65    66    1
    86    70    71    1
    87    69     7    2
