@<TRIPOS>MOLECULE
4103123.cif
 47 49 0 0 0
SMALL
GASTEIGER

@<TRIPOS>ATOM
      1 F           5.0632    4.9581    0.9456 F       1  LIG1        0.0000
      2 F           3.0845    5.3077   -0.7712 F       1  LIG1        0.0000
      3 F           1.0631    3.5196   -0.9413 F       1  LIG1        0.0000
      4 F           1.0928    1.3045    0.6158 F       1  LIG1        0.0000
      5 F           3.0573    0.9482    2.4097 F       1  LIG1        0.0000
      6 F           5.3524    0.2295    4.7428 F       1  LIG1        0.0000
      7 F           6.8121   -1.9269    4.2893 F       1  LIG1        0.0000
      8 F           8.3413   -2.1196    2.0460 F       1  LIG1        0.0000
      9 F           8.4499   -0.0454    0.3193 F       1  LIG1        0.0000
     10 F           6.9709    2.1581    0.7544 F       1  LIG1        0.0000
     11 N           4.7099    2.9684    4.4094 N.3     1  LIG1        0.0000
     12 N           6.1603    3.9345    3.2988 N.3     1  LIG1        0.0000
     13 C           5.5536    3.9680    4.4687 C.3     1  LIG1        0.0000
     14 C           3.6160    2.6247    5.3164 C.3     1  LIG1        0.0000
     15 H           3.5006    1.6322    5.2882 H       1  LIG1        0.0000
     16 C           2.3129    3.2463    4.8771 C.3     1  LIG1        0.0000
     17 H           2.3863    4.2232    4.9198 H       1  LIG1        0.0000
     18 H           1.5920    2.9473    5.4697 H       1  LIG1        0.0000
     19 H           2.1147    2.9732    3.9576 H       1  LIG1        0.0000
     20 C           3.9646    3.0047    6.7413 C.3     1  LIG1        0.0000
     21 H           4.8050    2.5696    6.9996 H       1  LIG1        0.0000
     22 H           3.2473    2.7147    7.3419 H       1  LIG1        0.0000
     23 H           4.0691    3.9781    6.8030 H       1  LIG1        0.0000
     24 C           8.6181    4.0298    3.3678 C.3     1  LIG1        0.0000
     25 H           8.6782    4.1546    4.3370 H       1  LIG1        0.0000
     26 H           9.3903    4.4491    2.9348 H       1  LIG1        0.0000
     27 H           8.6090    3.0721    3.1617 H       1  LIG1        0.0000
     28 C           7.3503    4.6649    2.8566 C.3     1  LIG1        0.0000
     29 H           7.3744    4.6200    1.8585 H       1  LIG1        0.0000
     30 C           7.2599    6.1217    3.2400 C.3     1  LIG1        0.0000
     31 H           6.4335    6.5039    2.8771 H       1  LIG1        0.0000
     32 H           8.0307    6.6040    2.8744 H       1  LIG1        0.0000
     33 H           7.2565    6.2027    4.2160 H       1  LIG1        0.0000
     34 C           4.1486    2.9338    1.7888 C.ar    1  LIG1        0.0000
     35 C           3.1111    2.0481    1.6218 C.ar    1  LIG1        0.0000
     36 C           2.0841    2.2099    0.7228 C.ar    1  LIG1        0.0000
     37 C           2.0734    3.3217   -0.0768 C.ar    1  LIG1        0.0000
     38 C           3.0856    4.2209    0.0198 C.ar    1  LIG1        0.0000
     39 C           4.0958    4.0197    0.9319 C.ar    1  LIG1        0.0000
     40 C           6.0982    1.3154    2.7693 C.ar    1  LIG1        0.0000
     41 C           6.1174    0.2316    3.6301 C.ar    1  LIG1        0.0000
     42 C           6.8584   -0.9026    3.4168 C.ar    1  LIG1        0.0000
     43 C           7.6380   -1.0083    2.2952 C.ar    1  LIG1        0.0000
     44 C           7.6772    0.0405    1.4174 C.ar    1  LIG1        0.0000
     45 C           6.9197    1.1522    1.6678 C.ar    1  LIG1        0.0000
     46 B           5.2596    2.6821    2.9450 B       1  LIG1        0.0000
     47 H           5.6621    4.5862    5.2112 H       1  LIG1        0.0000
@<TRIPOS>BOND
     1     3    37    1
     2     2    38    1
     3    37    38   ar
     4    37    36   ar
     5    38    39   ar
     6     9    44    1
     7     4    36    1
     8    36    35   ar
     9    10    45    1
    10    39     1    1
    11    39    34   ar
    12    44    45   ar
    13    44    43   ar
    14    35    34   ar
    15    35     5    1
    16    45    40   ar
    17    34    46    1
    18    29    28    1
    19     8    43    1
    20    43    42   ar
    21    40    46    1
    22    40    41   ar
    23    28    30    1
    24    28    12    1
    25    28    24    1
    26    32    30    1
    27    31    30    1
    28    26    24    1
    29    46    12    1
    30    46    11    1
    31    27    24    1
    32    30    33    1
    33    12    13    1
    34    24    25    1
    35    42    41   ar
    36    42     7    1
    37    41     6    1
    38    19    16    1
    39    11    13    1
    40    11    14    1
    41    13    47    1
    42    16    17    1
    43    16    14    1
    44    16    18    1
    45    15    14    1
    46    14    20    1
    47    20    23    1
    48    20    21    1
    49    20    22    1
