@<TRIPOS>MOLECULE
?
 82 84 0 0 0
SMALL
GASTEIGER

@<TRIPOS>ATOM
      1 O           1.9611   -1.6780   18.5706 O.2     1  LIG1       -0.1261
      2 O           0.3786   -1.3367   20.0141 O.2     1  LIG1       -0.1261
      3 O           0.4658    4.2277   17.1727 O.3     1  LIG1       -0.4867
      4 O           1.4380    4.5108   20.8726 O.2     1  LIG1       -0.2752
      5 O          -0.2920    1.6056   13.5069 O.2     1  LIG1       -0.2262
      6 O           0.3347    3.7972   13.4185 O.3     1  LIG1       -0.4445
      7 O           2.4883    6.8898   17.8596 O.3     1  LIG1       -0.3734
      8 O           5.5751    3.4982   13.5827 O.3     1  LIG1       -0.4951
      9 N           1.1104   -0.9653   19.0988 N.pl3   1  LIG1        0.0564
     10 N           0.2888    5.9893   19.5980 N.am    1  LIG1       -0.2959
     11 N          -1.0580    3.1073   15.0249 N.am    1  LIG1       -0.2669
     12 C           0.9583    0.4070   18.5986 C.ar    1  LIG1        0.1267
     13 C           0.2695    1.3156   19.3849 C.ar    1  LIG1       -0.0244
     14 H          -0.0910    1.0447   20.2216 H       1  LIG1        0.0644
     15 C           0.1083    2.6245   18.9462 C.ar    1  LIG1        0.0052
     16 C           0.6039    2.9635   17.6743 C.ar    1  LIG1        0.1247
     17 C           1.3292    2.0412   16.9163 C.ar    1  LIG1       -0.0175
     18 H           1.6925    2.2997   16.0784 H       1  LIG1        0.0655
     19 C           1.5209    0.7515   17.3818 C.ar    1  LIG1       -0.0280
     20 H           2.0246    0.1204   16.8799 H       1  LIG1        0.0641
     21 C          -0.5183    3.6522   19.8636 C.3     1  LIG1        0.0528
     22 H          -0.7853    3.2209   20.7139 H       1  LIG1        0.0408
     23 H          -1.3304    4.0265   19.4398 H       1  LIG1        0.0408
     24 C           0.4733    4.7714   20.1466 C.2     1  LIG1        0.2203
     25 C          -0.9309    6.3848   18.8761 C.3     1  LIG1        0.0210
     26 H          -1.0806    7.3485   19.0421 H       1  LIG1        0.0468
     27 H          -1.6916    5.8977   19.2803 H       1  LIG1        0.0468
     28 C          -0.9868    6.1580   17.3499 C.3     1  LIG1        0.0105
     29 H          -0.2372    6.6616   16.9193 H       1  LIG1        0.0350
     30 C          -2.3234    6.7608   16.8840 C.3     1  LIG1       -0.0576
     31 H          -2.3035    6.8879   15.9130 H       1  LIG1        0.0234
     32 H          -2.4633    7.6245   17.3249 H       1  LIG1        0.0234
     33 H          -3.0549    6.1529   17.1182 H       1  LIG1        0.0234
     34 C          -0.8960    4.6872   16.9417 C.3     1  LIG1        0.1199
     35 H          -1.5299    4.1469   17.4943 H       1  LIG1        0.0752
     36 C           1.2825    7.0440   19.9111 C.3     1  LIG1        0.0465
     37 H           2.0818    6.5894   20.3043 H       1  LIG1        0.0520
     38 C           0.7367    8.0032   20.9762 C.3     1  LIG1       -0.0443
     39 H          -0.0145    8.5104   20.6036 H       1  LIG1        0.0248
     40 H           1.4446    8.6227   21.2515 H       1  LIG1        0.0248
     41 H           0.4318    7.4897   21.7536 H       1  LIG1        0.0248
     42 C           1.7537    7.7911   18.6784 C.3     1  LIG1        0.0664
     43 H           0.9760    8.1461   18.1796 H       1  LIG1        0.0578
     44 H           2.3277    8.5537   18.9436 H       1  LIG1        0.0578
     45 C          -1.2187    4.4945   15.4566 C.3     1  LIG1        0.0548
     46 H          -2.1515    4.7808   15.2888 H       1  LIG1        0.0502
     47 H          -0.6226    5.0728   14.9186 H       1  LIG1        0.0502
     48 C          -1.9358    2.0920   15.6102 C.3     1  LIG1        0.0064
     49 H          -2.5998    1.8118   14.9462 H       1  LIG1        0.0430
     50 H          -2.3935    2.4666   16.3915 H       1  LIG1        0.0430
     51 H          -1.4020    1.3176   15.8855 H       1  LIG1        0.0430
     52 C          -0.3297    2.7463   13.9367 C.2     1  LIG1        0.4032
     53 C           1.1688    3.6421   12.2151 C.3     1  LIG1        0.1068
     54 C           2.2711    2.6390   12.4685 C.3     1  LIG1       -0.0253
     55 H           2.7305    2.8630   13.3038 H       1  LIG1        0.0268
     56 H           2.9116    2.6640   11.7265 H       1  LIG1        0.0268
     57 H           1.8852    1.7412   12.5378 H       1  LIG1        0.0268
     58 C           0.2890    3.2811   11.0265 C.3     1  LIG1       -0.0253
     59 H          -0.1356    2.4120   11.1850 H       1  LIG1        0.0268
     60 H           0.8385    3.2321   10.2162 H       1  LIG1        0.0268
     61 H          -0.4028    3.9655   10.9113 H       1  LIG1        0.0268
     62 C           1.7459    5.0423   12.0487 C.3     1  LIG1       -0.0253
     63 H           1.0147    5.6875   11.9490 H       1  LIG1        0.0268
     64 H           2.3151    5.0680   11.2520 H       1  LIG1        0.0268
     65 H           2.2783    5.2718   12.8391 H       1  LIG1        0.0268
     66 C           2.8683    7.4618   16.6137 C.3     1  LIG1        0.0728
     67 H           3.4538    8.2456   16.7677 H       1  LIG1        0.0610
     68 H           2.0634    7.7673   16.1257 H       1  LIG1        0.0610
     69 C           3.5998    6.4304   15.7978 C.ar    1  LIG1       -0.0217
     70 C           4.4286    6.8096   14.7423 C.ar    1  LIG1       -0.0529
     71 H           4.5392    7.7336   14.5503 H       1  LIG1        0.0622
     72 C           5.0989    5.8690   13.9623 C.ar    1  LIG1       -0.0196
     73 H           5.6440    6.1497   13.2369 H       1  LIG1        0.0654
     74 C           4.9620    4.5208   14.2556 C.ar    1  LIG1        0.1201
     75 C           4.1451    4.1273   15.3187 C.ar    1  LIG1       -0.0196
     76 H           4.0638    3.2064   15.5349 H       1  LIG1        0.0654
     77 C           3.4548    5.0664   16.0576 C.ar    1  LIG1       -0.0529
     78 H           2.8728    4.7808   16.7519 H       1  LIG1        0.0622
     79 C           6.3343    3.8346   12.4240 C.3     1  LIG1        0.0788
     80 H           5.7689    4.3298   11.7954 H       1  LIG1        0.0660
     81 H           6.6578    3.0139   11.9963 H       1  LIG1        0.0660
     82 H           7.0983    4.3908   12.6836 H       1  LIG1        0.0660
@<TRIPOS>BOND
     1    60    58    1
     2    61    58    1
     3    58    59    1
     4    58    53    1
     5    64    62    1
     6    56    54    1
     7    80    79    1
     8    63    62    1
     9    81    79    1
    10    62    53    1
    11    62    65    1
    12    53    54    1
    13    53     6    1
    14    79    82    1
    15    79     8    1
    16    54    57    1
    17    54    55    1
    18    73    72    1
    19     6    52    1
    20     5    52    2
    21     8    74    1
    22    52    11   am
    23    72    74   ar
    24    72    70   ar
    25    74    75   ar
    26    71    70    1
    27    70    69   ar
    28    47    45    1
    29    49    48    1
    30    11    45    1
    31    11    48    1
    32    46    45    1
    33    75    76    1
    34    75    77   ar
    35    45    34    1
    36    48    51    1
    37    48    50    1
    38    69    77   ar
    39    69    66    1
    40    31    30    1
    41    77    78    1
    42    18    17    1
    43    68    66    1
    44    66    67    1
    45    66     7    1
    46    20    19    1
    47    30    33    1
    48    30    32    1
    49    30    28    1
    50    17    19   ar
    51    17    16   ar
    52    29    28    1
    53    34     3    1
    54    34    28    1
    55    34    35    1
    56     3    16    1
    57    28    25    1
    58    19    12   ar
    59    16    15   ar
    60     7    42    1
    61    43    42    1
    62     1     9    2
    63    12     9    1
    64    12    13   ar
    65    42    44    1
    66    42    36    1
    67    25    26    1
    68    25    27    1
    69    25    10    1
    70    15    13   ar
    71    15    21    1
    72     9     2    2
    73    13    14    1
    74    23    21    1
    75    10    36    1
    76    10    24   am
    77    21    24    1
    78    21    22    1
    79    36    37    1
    80    36    38    1
    81    24     4    2
    82    39    38    1
    83    38    40    1
    84    38    41    1
