@<TRIPOS>MOLECULE
C11 H21 N3 O2
 37 37 0 0 0
SMALL
GASTEIGER

@<TRIPOS>ATOM
      1 C          -2.7566    2.6625    9.8746 C.3     1  LIG1        0.2478
      2 N          -2.3871    3.9992    9.7500 N.4     1  LIG1       -0.1041
      3 O          -2.6122    4.7835    8.7702 O.3     1  LIG1       -0.1155
      4 C          -1.7706    4.4319   11.0441 C.3     1  LIG1        0.0672
      5 C          -1.4563    3.0326   11.6602 C.3     1  LIG1        0.0547
      6 N          -2.3537    2.0782   10.9368 N.3     1  LIG1       -0.1885
      7 C          -2.8389    5.2186   11.7987 C.3     1  LIG1       -0.0427
      8 H          -3.6364    4.6478   12.0060 H       1  LIG1        0.0249
      9 H          -3.1357    5.9929   11.2284 H       1  LIG1        0.0249
     10 H          -2.4782    5.5763   12.6423 H       1  LIG1        0.0249
     11 C          -0.5659    5.3193   10.7665 C.3     1  LIG1       -0.0427
     12 H          -0.1485    5.5710   11.6054 H       1  LIG1        0.0249
     13 H           0.1200    4.8667   10.1680 H       1  LIG1        0.0249
     14 H          -0.8662    6.1711   10.3447 H       1  LIG1        0.0249
     15 C          -1.7114    2.9357   13.1548 C.3     1  LIG1       -0.0436
     16 H          -1.1247    3.6275   13.6437 H       1  LIG1        0.0248
     17 H          -2.6606    3.1579   13.3845 H       1  LIG1        0.0248
     18 H          -1.5067    2.0459   13.4434 H       1  LIG1        0.0248
     19 C          -0.0352    2.5410   11.3639 C.3     1  LIG1       -0.0436
     20 H           0.1695    2.6037   10.3919 H       1  LIG1        0.0248
     21 H           0.6226    3.0609   11.8646 H       1  LIG1        0.0248
     22 H           0.0553    1.6010   11.6172 H       1  LIG1        0.0248
     23 N          -3.4994    2.0443    8.8571 N.4     1  LIG1       -0.1062
     24 O          -4.4645    2.7094    8.3394 O.3     1  LIG1       -0.1155
     25 C          -3.2806    0.6056    8.4779 C.3     1  LIG1        0.0452
     26 C          -3.8559    0.4281    7.0775 C.3     1  LIG1       -0.0447
     27 H          -3.6814   -0.5119    6.8101 H       1  LIG1        0.0248
     28 H          -3.3793    1.0168    6.4566 H       1  LIG1        0.0248
     29 H          -4.8455    0.6355    7.0575 H       1  LIG1        0.0248
     30 C          -4.0107   -0.2793    9.4740 C.3     1  LIG1       -0.0447
     31 H          -3.6586   -0.1395   10.4390 H       1  LIG1        0.0248
     32 H          -4.9755   -0.0635    9.4375 H       1  LIG1        0.0248
     33 H          -3.8973   -1.2498    9.2254 H       1  LIG1        0.0248
     34 C          -1.7814    0.3154    8.4702 C.3     1  LIG1       -0.0447
     35 H          -1.3982    0.3672    9.3904 H       1  LIG1        0.0248
     36 H          -1.6303   -0.6125    8.1061 H       1  LIG1        0.0248
     37 H          -1.3044    0.9973    7.8587 H       1  LIG1        0.0248
@<TRIPOS>BOND
     1    28    26    1
     2    27    26    1
     3    29    26    1
     4    26    25    1
     5    37    34    1
     6    36    34    1
     7    24    23    1
     8    34    25    1
     9    34    35    1
    10    25    23    1
    11    25    30    1
    12     3     2    1
    13    23     1    1
    14    33    30    1
    15    32    30    1
    16    30    31    1
    17     2     1    1
    18     2     4    1
    19     1     6    1
    20    13    11    1
    21    14    11    1
    22    20    19    1
    23    11     4    1
    24    11    12    1
    25     6     5    1
    26     4     5    1
    27     4     7    1
    28     9     7    1
    29    19    22    1
    30    19     5    1
    31    19    21    1
    32     5    15    1
    33     7     8    1
    34     7    10    1
    35    15    17    1
    36    15    18    1
    37    15    16    1
