@<TRIPOS>MOLECULE
?
 34 33 0 0 0
SMALL
GASTEIGER

@<TRIPOS>ATOM
      1 I           2.6786    3.2054    5.9917 I       1  LIG1        0.0000
      2 N           3.0083    2.1721    1.5076 N.pl3   2  LIG2       -0.3160
      3 C           2.6786    3.2054    2.3000 C.3     2  LIG2        0.0644
      4 H           2.6786    3.2054    3.2833 H       2  LIG2        0.0538
      5 C           2.8845    2.5613    0.1825 C.3     2  LIG2        0.0644
      6 H           3.0751    2.0194   -0.5211 H       2  LIG2        0.0538
      7 C           3.4599    0.8842    1.9927 C.ar    2  LIG2        0.0373
      8 C           4.8371    0.7008    2.1641 C.ar    2  LIG2       -0.0232
      9 C           5.2530   -0.5421    2.6396 C.ar    2  LIG2       -0.0565
     10 H           6.2102   -0.7488    2.7603 H       2  LIG2        0.0621
     11 C           4.3309   -1.5299    2.9359 C.ar    2  LIG2       -0.0611
     12 H           4.6233   -2.4143    3.2986 H       2  LIG2        0.0618
     13 C           2.9758   -1.3160    2.7524 C.ar    2  LIG2       -0.0566
     14 H           2.3036   -2.0284    3.0390 H       2  LIG2        0.0621
     15 C           2.5010   -0.0949    2.2559 C.ar    2  LIG2       -0.0235
     16 C           5.8444    1.8107    1.9238 C.3     2  LIG2       -0.0169
     17 H           5.4366    2.5336    1.4126 H       2  LIG2        0.0347
     18 C           7.0557    1.3269    1.1282 C.3     2  LIG2       -0.0583
     19 H           7.6717    2.1156    0.9373 H       2  LIG2        0.0236
     20 H           6.7609    0.9450    0.2749 H       2  LIG2        0.0236
     21 H           7.5324    0.5770    1.6817 H       2  LIG2        0.0236
     22 C           6.2822    2.4084    3.2598 C.3     2  LIG2       -0.0459
     23 H           6.7181    3.1464    2.9779 H       2  LIG2        0.0271
     24 H           5.5716    2.6541    3.7300 H       2  LIG2        0.0271
     25 C           1.0130    0.1291    2.0652 C.3     2  LIG2       -0.0198
     26 H           0.9225    0.9347    1.4832 H       2  LIG2        0.0344
     27 C           0.3376    0.4035    3.4083 C.3     2  LIG2       -0.0586
     28 H          -0.6257    0.5924    3.2814 H       2  LIG2        0.0235
     29 H           0.7393    1.1411    3.8541 H       2  LIG2        0.0235
     30 H           0.3643   -0.4103    3.9839 H       2  LIG2        0.0235
     31 C           0.3423   -1.0437    1.3483 C.3     2  LIG2       -0.0586
     32 H          -0.5743   -0.8103    1.1778 H       2  LIG2        0.0235
     33 H           0.2357   -1.8438    1.9757 H       2  LIG2        0.0235
     34 H           0.7715   -1.2232    0.4505 H       2  LIG2        0.0235
@<TRIPOS>BOND
     1     6     5    1
     2     5     2    1
     3    20    18    1
     4    34    31    1
     5    19    18    1
     6    18    21    1
     7    18    16    1
     8    32    31    1
     9    31    33    1
    10    31    25    1
    11    17    16    1
    12    26    25    1
    13     2     7    1
    14     2     3    1
    15    16     8    1
    16    16    22    1
    17     7     8   ar
    18     7    15   ar
    19    25    15    1
    20    25    27    1
    21     8     9   ar
    22    15    13   ar
    23     3     4    1
    24     9    10    1
    25     9    11   ar
    26    13    11   ar
    27    13    14    1
    28    11    12    1
    29    23    22    1
    30    22    24    1
    31    28    27    1
    32    27    29    1
    33    27    30    1
