@<TRIPOS>MOLECULE
C12 H14 O2
 28 29 0 0 0
SMALL
GASTEIGER

@<TRIPOS>ATOM
      1 O           4.7901    6.3725   11.3644 O.3     1  LIG1       -0.3835
      2 H           4.9610    6.2763   10.5458 H       1  LIG1        0.2106
      3 O           2.1711    8.3873   10.1599 O.2     1  LIG1       -0.2973
      4 C           3.6166    5.6159   11.6995 C.3     1  LIG1        0.0976
      5 C           2.4447    6.1136   10.8332 C.3     1  LIG1        0.0388
      6 H           2.6503    5.9603    9.8769 H       1  LIG1        0.0373
      7 H           1.6259    5.6041   11.0587 H       1  LIG1        0.0373
      8 C           2.2062    7.5783   11.0679 C.2     1  LIG1        0.1364
      9 C           2.0018    7.9834   12.5010 C.3     1  LIG1        0.0060
     10 H           1.1249    7.6477   12.8135 H       1  LIG1        0.0342
     11 H           1.9918    8.9711   12.5636 H       1  LIG1        0.0342
     12 C           3.1105    7.4288   13.4068 C.3     1  LIG1       -0.0434
     13 H           3.9534    7.9168   13.2287 H       1  LIG1        0.0270
     14 H           2.8653    7.5797   14.3541 H       1  LIG1        0.0270
     15 C           3.3323    5.9394   13.1748 C.3     1  LIG1       -0.0190
     16 H           2.5274    5.4422   13.4673 H       1  LIG1        0.0296
     17 H           4.0952    5.6347   13.7266 H       1  LIG1        0.0296
     18 C           3.8835    4.1183   11.5301 C.ar    1  LIG1       -0.0157
     19 C           3.0066    3.2582   10.8674 C.ar    1  LIG1       -0.0558
     20 H           2.2196    3.6103   10.4687 H       1  LIG1        0.0621
     21 C           3.2641    1.8988   10.7823 C.ar    1  LIG1       -0.0614
     22 H           2.6531    1.3302   10.3278 H       1  LIG1        0.0618
     23 C           4.4035    1.3658   11.3540 C.ar    1  LIG1       -0.0617
     24 H           4.5745    0.4328   11.3029 H       1  LIG1        0.0618
     25 C           5.2994    2.2108   12.0056 C.ar    1  LIG1       -0.0614
     26 H           6.0909    1.8549   12.3926 H       1  LIG1        0.0618
     27 C           5.0392    3.5697   12.0911 C.ar    1  LIG1       -0.0558
     28 H           5.6558    4.1370   12.5392 H       1  LIG1        0.0621
@<TRIPOS>BOND
     1     6     5    1
     2     3     8    2
     3    22    21    1
     4    20    19    1
     5     2     1    1
     6    21    19   ar
     7    21    23   ar
     8     5     7    1
     9     5     8    1
    10     5     4    1
    11    19    18   ar
    12     8     9    1
    13    24    23    1
    14    23    25   ar
    15     1     4    1
    16    18     4    1
    17    18    27   ar
    18     4    15    1
    19    25    27   ar
    20    25    26    1
    21    27    28    1
    22     9    11    1
    23     9    10    1
    24     9    12    1
    25    15    12    1
    26    15    16    1
    27    15    17    1
    28    13    12    1
    29    12    14    1
