@<TRIPOS>MOLECULE
ellman01
 88 88 0 0 0
SMALL
GASTEIGER

@<TRIPOS>ATOM
      1 C          13.2661   11.2892    2.6815 C.ar    1  LIG1       -0.0255
      2 C          14.2685   12.0542    3.2593 C.ar    1  LIG1       -0.0554
      3 H          14.2737   12.1733    4.2018 H       1  LIG1        0.0621
      4 C          15.2570   12.6456    2.5034 C.ar    1  LIG1       -0.0431
      5 H          15.9471   13.1518    2.9152 H       1  LIG1        0.0632
      6 C          15.2223   12.4862    1.1320 C.ar    1  LIG1        0.0410
      7 C          14.2437   11.7397    0.5118 C.ar    1  LIG1       -0.0431
      8 H          14.2368   11.6359   -0.4326 H       1  LIG1        0.0632
      9 C          13.2679   11.1401    1.2988 C.ar    1  LIG1       -0.0554
     10 H          12.5898   10.6202    0.8850 H       1  LIG1        0.0621
     11 C          12.2183   10.6420    3.5628 C.3     1  LIG1        0.0651
     12 H          12.6417   10.4127    4.4393 H       1  LIG1        0.0565
     13 C          11.0509   11.5782    3.8248 C.2     1  LIG1       -0.0520
     14 C          10.3172   12.0490    2.5872 C.3     1  LIG1       -0.0417
     15 H           9.4335   12.3870    2.8408 H       1  LIG1        0.0275
     16 H          10.2146   11.3002    1.9642 H       1  LIG1        0.0275
     17 H          10.8304   12.7650    2.1565 H       1  LIG1        0.0275
     18 C          10.7203   11.9746    5.0576 C.2     1  LIG1       -0.0749
     19 C          11.3319   11.4498    6.3225 C.3     1  LIG1       -0.0437
     20 H          11.8420   10.6368    6.1264 H       1  LIG1        0.0274
     21 H          10.6240   11.2433    6.9672 H       1  LIG1        0.0274
     22 H          11.9310   12.1272    6.7014 H       1  LIG1        0.0274
     23 C           9.6409   13.0030    5.3064 C.3     1  LIG1       -0.0437
     24 H           9.8732   13.5360    6.0944 H       1  LIG1        0.0274
     25 H           8.7855   12.5483    5.4601 H       1  LIG1        0.0274
     26 H           9.5617   13.5897    4.5251 H       1  LIG1        0.0274
     27 C          10.2963    7.2082    2.6259 C.3     1  LIG1        0.0399
     28 C           9.2502    6.3285    3.3347 C.3     1  LIG1       -0.0484
     29 H           8.4830    6.8791    3.5967 H       1  LIG1        0.0244
     30 H           9.6497    5.9246    4.1339 H       1  LIG1        0.0244
     31 H           8.9514    5.6210    2.7258 H       1  LIG1        0.0244
     32 C          11.5287    6.3829    2.2819 C.3     1  LIG1       -0.0484
     33 H          11.2597    5.5930    1.7682 H       1  LIG1        0.0244
     34 H          11.9739    6.0998    3.1085 H       1  LIG1        0.0244
     35 H          12.1459    6.9252    1.7474 H       1  LIG1        0.0244
     36 C           9.6709    7.8527    1.4034 C.3     1  LIG1       -0.0484
     37 H          10.3553    8.3512    0.9105 H       1  LIG1        0.0244
     38 H           8.9598    8.4654    1.6852 H       1  LIG1        0.0244
     39 H           9.2924    7.1572    0.8257 H       1  LIG1        0.0244
     40 C          15.2568    7.4529    4.3158 C.ar    2  LIG2       -0.0255
     41 C          14.9733    6.4965    3.3507 C.ar    2  LIG2       -0.0554
     42 H          14.6244    5.6554    3.6193 H       2  LIG2        0.0621
     43 C          15.1901    6.7413    2.0000 C.ar    2  LIG2       -0.0431
     44 H          15.0117    6.0692    1.3535 H       2  LIG2        0.0632
     45 C          15.6655    7.9735    1.6146 C.ar    2  LIG2        0.0410
     46 C          15.9208    8.9610    2.5288 C.ar    2  LIG2       -0.0431
     47 H          16.2323    9.8132    2.2460 H       2  LIG2        0.0632
     48 C          15.7171    8.6937    3.8851 C.ar    2  LIG2       -0.0554
     49 H          15.8951    9.3718    4.5251 H       2  LIG2        0.0621
     50 C          15.1266    7.1087    5.7994 C.3     2  LIG2        0.0651
     51 H          15.8281    6.4242    5.9982 H       2  LIG2        0.0565
     52 C          15.3970    8.2876    6.7136 C.2     2  LIG2       -0.0520
     53 C          14.2345    9.2322    6.8861 C.3     2  LIG2       -0.0417
     54 H          13.9004    9.1757    7.8051 H       2  LIG2        0.0275
     55 H          13.5188    8.9868    6.2622 H       2  LIG2        0.0275
     56 H          14.5283   10.1492    6.7014 H       2  LIG2        0.0275
     57 C          16.6066    8.5135    7.2311 C.2     2  LIG2       -0.0749
     58 C          17.8216    7.6398    7.0002 C.3     2  LIG2       -0.0437
     59 H          18.1704    7.3306    7.8626 H       2  LIG2        0.0274
     60 H          18.5128    8.1569    6.5355 H       2  LIG2        0.0274
     61 H          17.5683    6.8665    6.4535 H       2  LIG2        0.0274
     62 C          16.9329    9.7153    8.0812 C.3     2  LIG2       -0.0437
     63 H          17.5096   10.3257    7.5770 H       2  LIG2        0.0274
     64 H          17.3967    9.4239    8.8937 H       2  LIG2        0.0274
     65 H          16.1036   10.1761    8.3263 H       2  LIG2        0.0274
     66 C          12.3135    4.8354    7.5874 C.3     2  LIG2        0.0399
     67 C          12.5474    5.7822    8.7551 C.3     2  LIG2       -0.0484
     68 H          12.4947    6.7081    8.4403 H       2  LIG2        0.0244
     69 H          13.4336    5.6165    9.1378 H       2  LIG2        0.0244
     70 H          11.8621    5.6304    9.4404 H       2  LIG2        0.0244
     71 C          12.2554    3.3860    8.0624 C.3     2  LIG2       -0.0484
     72 H          13.0720    3.1732    8.5619 H       2  LIG2        0.0244
     73 H          12.1813    2.7906    7.2876 H       2  LIG2        0.0244
     74 H          11.4765    3.2644    8.6439 H       2  LIG2        0.0244
     75 C          11.0858    5.1739    6.7551 C.3     2  LIG2       -0.0484
     76 H          10.2769    5.0007    7.2801 H       2  LIG2        0.0244
     77 H          11.0764    4.6194    5.9474 H       2  LIG2        0.0244
     78 H          11.1142    6.1201    6.5016 H       2  LIG2        0.0244
     79 N          11.7626    9.3870    2.9228 N.3     1  LIG1       -0.2365
     80 H          12.0406    9.1240    2.1301 H       1  LIG1        0.1374
     81 N          13.8309    6.4881    6.1142 N.3     2  LIG2       -0.2365
     82 H          13.0850    6.9548    6.0868 H       2  LIG2        0.1374
     83 O          11.3937    7.8689    4.9709 O.3     1  LIG1       -0.1455
     84 O          13.4966    4.0390    5.3620 O.3     2  LIG2       -0.1455
     85 S          10.6743    8.5198    3.8420 S.3     1  LIG1        0.0321
     86 S          13.8192    4.8968    6.5191 S.3     2  LIG2        0.0321
     87 CL         16.4733   13.2151    0.1504 Cl      1  LIG1       -0.0835
     88 CL         15.9710    8.2911   -0.0739 Cl      2  LIG2       -0.0835
@<TRIPOS>BOND
     1     8     7    1
     2    88    45    1
     3    87     6    1
     4     7     6   ar
     5     7     9   ar
     6    39    36    1
     7    10     9    1
     8    37    36    1
     9     6     4   ar
    10     9     1   ar
    11    44    43    1
    12    36    38    1
    13    36    27    1
    14    45    43   ar
    15    45    46   ar
    16    35    32    1
    17    33    32    1
    18    16    14    1
    19    43    41   ar
    20    80    79    1
    21    17    14    1
    22    47    46    1
    23    32    27    1
    24    32    34    1
    25     4     5    1
    26     4     2   ar
    27    46    48   ar
    28    14    15    1
    29    14    13    1
    30    27    28    1
    31    27    85    1
    32     1     2   ar
    33     1    11    1
    34    31    28    1
    35    79    11    1
    36    79    85    1
    37     2     3    1
    38    28    29    1
    39    28    30    1
    40    41    42    1
    41    41    40   ar
    42    11    13    1
    43    11    12    1
    44    13    18    2
    45    85    83    1
    46    48    40   ar
    47    48    49    1
    48    40    50    1
    49    26    23    1
    50    18    23    1
    51    18    19    1
    52    23    25    1
    53    23    24    1
    54    84    86    1
    55    50    51    1
    56    50    81    1
    57    50    52    1
    58    77    75    1
    59    82    81    1
    60    81    86    1
    61    20    19    1
    62    55    53    1
    63    19    22    1
    64    19    21    1
    65    61    58    1
    66    78    75    1
    67    86    66    1
    68    60    58    1
    69    56    53    1
    70    52    53    1
    71    52    57    2
    72    75    76    1
    73    75    66    1
    74    53    54    1
    75    58    57    1
    76    58    59    1
    77    57    62    1
    78    73    71    1
    79    63    62    1
    80    66    71    1
    81    66    67    1
    82    71    72    1
    83    71    74    1
    84    62    65    1
    85    62    64    1
    86    68    67    1
    87    67    69    1
    88    67    70    1
