@<TRIPOS>MOLECULE
?
 36 37 0 0 0
SMALL
GASTEIGER

@<TRIPOS>ATOM
      1 S           3.6177    0.5007    9.7963 S.O2    1  LIG1        0.0214
      2 O           3.1471   -0.6305    9.0272 O.2     1  LIG1       -0.1646
      3 O           4.5837    0.2565   10.8392 O.2     1  LIG1       -0.1646
      4 O           0.0145    1.2204   12.7721 O.3     1  LIG1       -0.3877
      5 C           2.2119    1.3448   10.4705 C.2     1  LIG1        0.0723
      6 C           1.1799    1.7469    9.4384 C.3     1  LIG1       -0.0017
      7 C           0.6797    3.1846    9.6181 C.3     1  LIG1       -0.0451
      8 C          -0.1490    3.4578   10.8670 C.3     1  LIG1       -0.0498
      9 C           0.6211    3.4540   12.1759 C.3     1  LIG1       -0.0232
     10 C           1.1282    2.1085   12.6514 C.3     1  LIG1        0.0751
     11 C           2.2032    1.4960   11.7886 C.2     1  LIG1       -0.0345
     12 C           4.3279    1.6558    8.6579 C.ar    1  LIG1        0.0932
     13 C           4.5520    2.9691    9.0416 C.ar    1  LIG1       -0.0365
     14 C           5.1678    3.8285    8.1617 C.ar    1  LIG1       -0.0599
     15 C           5.5510    3.3988    6.9142 C.ar    1  LIG1       -0.0616
     16 C           5.3073    2.1060    6.5338 C.ar    1  LIG1       -0.0599
     17 C           4.6912    1.2236    7.3983 C.ar    1  LIG1       -0.0365
     18 C           0.0430    0.7272    9.3548 C.3     1  LIG1       -0.0572
     19 H           1.6361    1.7212    8.5706 H       1  LIG1        0.0359
     20 H           1.5044    2.2342   13.5476 H       1  LIG1        0.0638
     21 H           2.9561    1.1851   12.2380 H       1  LIG1        0.0613
     22 H           4.2896    3.2641    9.8828 H       1  LIG1        0.0637
     23 H           5.3257    4.7096    8.4128 H       1  LIG1        0.0618
     24 H           5.9755    3.9849    6.3293 H       1  LIG1        0.0618
     25 H           5.5592    1.8200    5.6849 H       1  LIG1        0.0618
     26 H           4.5232    0.3476    7.1355 H       1  LIG1        0.0637
     27 H           1.4503    3.7733    9.6292 H       1  LIG1        0.0271
     28 H           0.1473    3.4193    8.8424 H       1  LIG1        0.0271
     29 H          -0.5778    4.3223   10.7667 H       1  LIG1        0.0266
     30 H          -0.8500    2.7896   10.9220 H       1  LIG1        0.0266
     31 H           1.3815    4.0491   12.0828 H       1  LIG1        0.0293
     32 H           0.0481    3.8233   12.8657 H       1  LIG1        0.0293
     33 H           0.2259    0.6541   13.3678 H       1  LIG1        0.2102
     34 H           0.4039   -0.1372    9.1465 H       1  LIG1        0.0236
     35 H          -0.5732    0.9914    8.6677 H       1  LIG1        0.0236
     36 H          -0.4143    0.6887   10.1986 H       1  LIG1        0.0236
@<TRIPOS>BOND
     1    25    16    1
     2    24    15    1
     3    16    15   ar
     4    16    17   ar
     5    15    14   ar
     6    26    17    1
     7    17    12   ar
     8    14    23    1
     9    14    13   ar
    10    19     6    1
    11    12    13   ar
    12    12     1    1
    13    35    18    1
    14    28     7    1
    15     2     1    2
    16    13    22    1
    17    34    18    1
    18    18     6    1
    19    18    36    1
    20     6     7    1
    21     6     5    1
    22     7    27    1
    23     7     8    1
    24     1     5    1
    25     1     3    2
    26     5    11    2
    27    29     8    1
    28     8    30    1
    29     8     9    1
    30    11    21    1
    31    11    10    1
    32    31     9    1
    33     9    10    1
    34     9    32    1
    35    10     4    1
    36    10    20    1
    37     4    33    1
