@<TRIPOS>MOLECULE
(2-dicyclohexylphosphino)-2'-(N,N-dimethylamino)-1,1'-biphenyl)
 128 134 0 0 0
SMALL
GASTEIGER

@<TRIPOS>ATOM
      1 P           5.0509    7.2116    4.8036 P.3     1  LIG1       -0.0677
      2 N           6.1718    4.9168    2.7303 N.pl3   1  LIG1       -0.3355
      3 C           6.6867    7.8191    2.5969 C.ar    1  LIG1       -0.0085
      4 C           6.5069    8.0001    3.9810 C.ar    1  LIG1       -0.0151
      5 C           7.4419    8.7842    4.6693 C.ar    1  LIG1       -0.0535
      6 H           7.3349    8.9180    5.6045 H       1  LIG1        0.0624
      7 C           8.5209    9.3711    4.0220 C.ar    1  LIG1       -0.0611
      8 H           9.1381    9.9035    4.5100 H       1  LIG1        0.0618
      9 C           8.6944    9.1770    2.6622 C.ar    1  LIG1       -0.0611
     10 H           9.4353    9.5686    2.2135 H       1  LIG1        0.0618
     11 C           7.7831    8.4090    1.9594 C.ar    1  LIG1       -0.0534
     12 H           7.9045    8.2795    1.0261 H       1  LIG1        0.0624
     13 C           5.6807    7.1046    1.7520 C.ar    1  LIG1        0.0037
     14 C           5.4147    5.7213    1.8408 C.ar    1  LIG1        0.0370
     15 C           4.3761    5.1957    1.0667 C.ar    1  LIG1       -0.0401
     16 H           4.1644    4.2719    1.1352 H       1  LIG1        0.0636
     17 C           3.6471    5.9976    0.1984 C.ar    1  LIG1       -0.0600
     18 H           2.9422    5.6183   -0.3127 H       1  LIG1        0.0618
     19 C           3.9388    7.3408    0.0718 C.ar    1  LIG1       -0.0611
     20 H           3.4538    7.8870   -0.5359 H       1  LIG1        0.0618
     21 C           4.9541    7.8779    0.8482 C.ar    1  LIG1       -0.0522
     22 H           5.1613    8.8006    0.7606 H       1  LIG1        0.0624
     23 C           3.9898    8.6788    5.2532 C.3     1  LIG1       -0.0163
     24 H           3.2069    8.3059    5.7494 H       1  LIG1        0.0352
     25 C           3.4123    9.3084    3.9749 C.3     1  LIG1       -0.0460
     26 H           4.1364    9.7626    3.4741 H       1  LIG1        0.0271
     27 H           3.0373    8.5977    3.3976 H       1  LIG1        0.0271
     28 C           2.3154   10.3203    4.3173 C.3     1  LIG1       -0.0525
     29 H           1.9943   10.7497    3.4855 H       1  LIG1        0.0265
     30 H           1.5513    9.8478    4.7315 H       1  LIG1        0.0265
     31 C           2.8259   11.3930    5.2752 C.3     1  LIG1       -0.0530
     32 H           2.0693   11.9681    5.5524 H       1  LIG1        0.0265
     33 H           3.4852   11.9617    4.8048 H       1  LIG1        0.0265
     34 C           3.4798   10.7918    6.5187 C.3     1  LIG1       -0.0525
     35 H           2.7875   10.3449    7.0687 H       1  LIG1        0.0265
     36 H           3.8803   11.5174    7.0606 H       1  LIG1        0.0265
     37 C           4.5647    9.7782    6.1501 C.3     1  LIG1       -0.0460
     38 H           4.9340    9.3738    6.9743 H       1  LIG1        0.0271
     39 H           5.3024   10.2392    5.6778 H       1  LIG1        0.0271
     40 C           5.7991    6.7207    6.4327 C.3     1  LIG1       -0.0163
     41 H           6.2768    7.5085    6.8228 H       1  LIG1        0.0352
     42 C           4.7128    6.2602    7.4127 C.3     1  LIG1       -0.0460
     43 H           4.1734    5.5438    6.9938 H       1  LIG1        0.0271
     44 H           4.1100    7.0193    7.6144 H       1  LIG1        0.0271
     45 C           5.3278    5.7370    8.7172 C.3     1  LIG1       -0.0525
     46 H           5.7950    6.4766    9.1796 H       1  LIG1        0.0265
     47 H           4.6070    5.4105    9.3131 H       1  LIG1        0.0265
     48 C           6.3129    4.6059    8.4489 C.3     1  LIG1       -0.0530
     49 H           6.7181    4.3093    9.3017 H       1  LIG1        0.0265
     50 H           5.8339    3.8358    8.0509 H       1  LIG1        0.0265
     51 C           7.4070    5.0700    7.4999 C.3     1  LIG1       -0.0525
     52 H           8.0175    4.3146    7.3065 H       1  LIG1        0.0265
     53 H           7.9342    5.7876    7.9303 H       1  LIG1        0.0265
     54 C           6.8115    5.5915    6.1923 C.3     1  LIG1       -0.0460
     55 H           6.3632    4.8474    5.7185 H       1  LIG1        0.0271
     56 H           7.5407    5.9252    5.6126 H       1  LIG1        0.0271
     57 C           5.5716    3.6448    3.1011 C.3     1  LIG1        0.0004
     58 H           4.6293    3.7835    3.3308 H       1  LIG1        0.0428
     59 H           6.0446    3.2741    3.8748 H       1  LIG1        0.0428
     60 H           5.6372    3.0214    2.3486 H       1  LIG1        0.0428
     61 C           7.5772    4.7508    2.3758 C.3     1  LIG1        0.0004
     62 H           7.9556    5.6197    2.1239 H       1  LIG1        0.0428
     63 H           7.6522    4.1305    1.6206 H       1  LIG1        0.0428
     64 H           8.0681    4.3913    3.1451 H       1  LIG1        0.0428
     65 P           3.2172   12.7568   11.9385 P.3     2  LIG2       -0.0677
     66 N           2.6513   15.2440   13.9731 N.pl3   2  LIG2       -0.3355
     67 C           5.1411   13.6919   13.7699 C.ar    2  LIG2       -0.0085
     68 C           4.8959   13.3668   12.4186 C.ar    2  LIG2       -0.0151
     69 C           5.9527   13.4919   11.5114 C.ar    2  LIG2       -0.0535
     70 H           5.8054   13.2743   10.5982 H       2  LIG2        0.0624
     71 C           7.2142   13.9262   11.9076 C.ar    2  LIG2       -0.0611
     72 H           7.9153   14.0021   11.2709 H       2  LIG2        0.0618
     73 C           7.4422   14.2464   13.2368 C.ar    2  LIG2       -0.0611
     74 H           8.3005   14.5421   13.5169 H       2  LIG2        0.0618
     75 C           6.4125   14.1326   14.1524 C.ar    2  LIG2       -0.0534
     76 H           6.5717   14.3592   15.0610 H       2  LIG2        0.0624
     77 C           4.1150   13.4847   14.8354 C.ar    2  LIG2        0.0037
     78 C           2.9059   14.2089   14.9111 C.ar    2  LIG2        0.0370
     79 C           1.9799   13.8501   15.8903 C.ar    2  LIG2       -0.0401
     80 H           1.1473   14.3057   15.9323 H       2  LIG2        0.0636
     81 C           2.2477   12.8394   16.8070 C.ar    2  LIG2       -0.0600
     82 H           1.5999   12.6135   17.4633 H       2  LIG2        0.0618
     83 C           3.4482   12.1647   16.7687 C.ar    2  LIG2       -0.0611
     84 H           3.6428   11.4870   17.4047 H       2  LIG2        0.0618
     85 C           4.3686   12.4941   15.7825 C.ar    2  LIG2       -0.0522
     86 H           5.1968   12.0305   15.7532 H       2  LIG2        0.0624
     87 C           3.0426   13.4855   10.2373 C.3     2  LIG2       -0.0163
     88 H           3.8503   13.2474    9.6975 H       2  LIG2        0.0352
     89 C           1.7955   12.9145    9.5456 C.3     2  LIG2       -0.0460
     90 H           1.9064   11.9380    9.4223 H       2  LIG2        0.0271
     91 H           1.0040   13.0620   10.1226 H       2  LIG2        0.0271
     92 C           1.5619   13.5742    8.1867 C.3     2  LIG2       -0.0525
     93 H           2.3114   13.3498    7.5802 H       2  LIG2        0.0265
     94 H           0.7278   13.2190    7.7886 H       2  LIG2        0.0265
     95 C           1.4544   15.0898    8.3170 C.3     2  LIG2       -0.0530
     96 H           1.3393   15.4925    7.4205 H       2  LIG2        0.0265
     97 H           0.6609   15.3201    8.8620 H       2  LIG2        0.0265
     98 C           2.7063   15.6575    8.9745 C.3     2  LIG2       -0.0525
     99 H           2.6062   16.6369    9.0851 H       2  LIG2        0.0265
    100 H           3.4887   15.4927    8.3913 H       2  LIG2        0.0265
    101 C           2.9450   15.0135   10.3396 C.3     2  LIG2       -0.0460
    102 H           2.2025   15.2540   10.9484 H       2  LIG2        0.0271
    103 H           3.7839   15.3688   10.7269 H       2  LIG2        0.0271
    104 C           3.5318   10.9563   11.5842 C.3     2  LIG2       -0.0163
    105 H           2.6545   10.5825   11.2855 H       2  LIG2        0.0352
    106 C           4.5383   10.5691   10.4984 C.3     2  LIG2       -0.0460
    107 H           5.4450   10.8603   10.7676 H       2  LIG2        0.0271
    108 H           4.3058   11.0284    9.6519 H       2  LIG2        0.0271
    109 C           4.5322    9.0526   10.2775 C.3     2  LIG2       -0.0525
    110 H           3.6492    8.7757    9.9255 H       2  LIG2        0.0265
    111 H           5.2168    8.8159    9.6030 H       2  LIG2        0.0265
    112 C           4.8183    8.3012   11.5722 C.3     2  LIG2       -0.0530
    113 H           5.7495    8.4800   11.8556 H       2  LIG2        0.0265
    114 H           4.7299    7.3290   11.4126 H       2  LIG2        0.0265
    115 C           3.8641    8.7168   12.6872 C.3     2  LIG2       -0.0525
    116 H           4.1299    8.2692   13.5299 H       2  LIG2        0.0265
    117 H           2.9473    8.4200   12.4615 H       2  LIG2        0.0265
    118 C           3.8690   10.2283   12.8947 C.3     2  LIG2       -0.0460
    119 H           4.7620   10.5161   13.2123 H       2  LIG2        0.0271
    120 H           3.2032   10.4685   13.5869 H       2  LIG2        0.0271
    121 C           1.2573   15.6076   13.7951 C.3     2  LIG2        0.0004
    122 H           0.7146   14.7945   13.7238 H       2  LIG2        0.0428
    123 H           1.1605   16.1386   12.9778 H       2  LIG2        0.0428
    124 H           0.9558   16.1345   14.5642 H       2  LIG2        0.0428
    125 C           3.4995   16.4216   14.0974 C.3     2  LIG2        0.0004
    126 H           4.4303   16.1418   14.2222 H       2  LIG2        0.0428
    127 H           3.2109   16.9515   14.8688 H       2  LIG2        0.0428
    128 H           3.4274   16.9640   13.2840 H       2  LIG2        0.0428
@<TRIPOS>BOND
     1    20    19    1
     2    18    17    1
     3    19    17   ar
     4    19    21   ar
     5    17    15   ar
     6    22    21    1
     7    21    13   ar
     8    12    11    1
     9    15    16    1
    10    15    14   ar
    11    63    61    1
    12    13    14   ar
    13    13     3    1
    14    14     2    1
    15    11     3   ar
    16    11     9   ar
    17    62    61    1
    18    10     9    1
    19    60    57    1
    20    61     2    1
    21    61    64    1
    22     3     4   ar
    23     9     7   ar
    24     2    57    1
    25    57    58    1
    26    57    59    1
    27    27    25    1
    28    26    25    1
    29    29    28    1
    30    25    28    1
    31    25    23    1
    32     4     5   ar
    33     4     1    1
    34     7     8    1
    35     7     5   ar
    36    28    30    1
    37    28    31    1
    38     5     6    1
    39     1    23    1
    40     1    40    1
    41    33    31    1
    42    23    24    1
    43    23    37    1
    44    31    32    1
    45    31    34    1
    46    56    54    1
    47    39    37    1
    48    55    54    1
    49    37    34    1
    50    37    38    1
    51    54    40    1
    52    54    51    1
    53    40    41    1
    54    40    42    1
    55    34    36    1
    56    34    35    1
    57    43    42    1
    58    52    51    1
    59    42    44    1
    60    42    45    1
    61    96    95    1
    62    51    53    1
    63    51    48    1
    64    93    92    1
    65    94    92    1
    66    50    48    1
    67    92    95    1
    68    92    89    1
    69    95    97    1
    70    95    98    1
    71   100    98    1
    72    48    45    1
    73    48    49    1
    74    45    46    1
    75    45    47    1
    76    98    99    1
    77    98   101    1
    78    90    89    1
    79    89    91    1
    80    89    87    1
    81   111   109    1
    82   108   106    1
    83    88    87    1
    84   110   109    1
    85    87   101    1
    86    87    65    1
    87   109   106    1
    88   109   112    1
    89   101   103    1
    90   101   102    1
    91   106   107    1
    92   106   104    1
    93    70    69    1
    94    72    71    1
    95   105   104    1
    96   114   112    1
    97    69    71   ar
    98    69    68   ar
    99   112   113    1
   100   112   115    1
   101   104    65    1
   102   104   118    1
   103    71    73   ar
   104    65    68    1
   105    68    67   ar
   106   117   115    1
   107   115   118    1
   108   115   116    1
   109   118   119    1
   110   118   120    1
   111   123   121    1
   112    73    74    1
   113    73    75   ar
   114   128   125    1
   115   122   121    1
   116    67    75   ar
   117    67    77    1
   118   121    66    1
   119   121   124    1
   120    66   125    1
   121    66    78    1
   122   125   126    1
   123   125   127    1
   124    75    76    1
   125    77    78   ar
   126    77    85   ar
   127    78    79   ar
   128    86    85    1
   129    85    83   ar
   130    79    80    1
   131    79    81   ar
   132    83    81   ar
   133    83    84    1
   134    81    82    1
