@<TRIPOS>MOLECULE
?
 47 49 0 0 0
SMALL
GASTEIGER

@<TRIPOS>ATOM
      1 CL          6.6050    2.6776    9.1725 Cl      1  LIG1       -0.0835
      2 N           3.9304    7.1092    3.5808 N.2     1  LIG1       -0.2724
      3 O           1.1601    7.7558    4.7399 O.3     1  LIG1       -0.4574
      4 O           1.0669    6.0044    3.3190 O.2     1  LIG1       -0.2484
      5 C           3.0876    6.4164    4.5637 C.3     1  LIG1        0.1546
      6 H           3.2421    6.7915    5.4673 H       1  LIG1        0.0667
      7 C           3.4606    4.9103    4.5440 C.3     1  LIG1        0.0223
      8 H           2.6437    4.3697    4.4051 H       1  LIG1        0.0379
      9 C           4.3600    4.8079    3.3015 C.3     1  LIG1       -0.0009
     10 H           5.2083    4.3660    3.5157 H       1  LIG1        0.0335
     11 H           3.9135    4.3117    2.5843 H       1  LIG1        0.0335
     12 C           4.5856    6.2472    2.9047 C.2     1  LIG1        0.0446
     13 C           5.4653    6.6442    1.7896 C.ar    1  LIG1       -0.0041
     14 C           6.4113    5.7641    1.2734 C.ar    1  LIG1       -0.0529
     15 H           6.5030    4.9046    1.6429 H       1  LIG1        0.0624
     16 C           7.2233    6.1523    0.2099 C.ar    1  LIG1       -0.0611
     17 H           7.8611    5.5513   -0.1309 H       1  LIG1        0.0618
     18 C           7.1041    7.3988   -0.3455 C.ar    1  LIG1       -0.0617
     19 H           7.6621    7.6566   -1.0572 H       1  LIG1        0.0618
     20 C           6.1545    8.2745    0.1499 C.ar    1  LIG1       -0.0611
     21 H           6.0578    9.1271   -0.2349 H       1  LIG1        0.0618
     22 C           5.3488    7.9025    1.2029 C.ar    1  LIG1       -0.0529
     23 H           4.7093    8.5079    1.5321 H       1  LIG1        0.0624
     24 C           4.1692    4.4390    5.7983 C.ar    1  LIG1       -0.0413
     25 C           5.2269    5.1474    6.3537 C.ar    1  LIG1       -0.0568
     26 H           5.4484    5.9926    6.0060 H       1  LIG1        0.0621
     27 C           5.9619    4.6350    7.4088 C.ar    1  LIG1       -0.0431
     28 H           6.6758    5.1256    7.7748 H       1  LIG1        0.0632
     29 C           5.6333    3.4004    7.9144 C.ar    1  LIG1        0.0410
     30 C           4.5455    2.6995    7.4406 C.ar    1  LIG1       -0.0431
     31 H           4.3014    1.8762    7.8234 H       1  LIG1        0.0632
     32 C           3.8151    3.2350    6.3836 C.ar    1  LIG1       -0.0568
     33 H           3.0655    2.7688    6.0597 H       1  LIG1        0.0621
     34 C           1.6405    6.6748    4.1275 C.2     1  LIG1        0.3330
     35 C          -0.1948    8.2682    4.4385 C.3     1  LIG1        0.1053
     36 C          -0.2607    8.7283    3.0010 C.3     1  LIG1       -0.0254
     37 H           0.4587    9.3555    2.8293 H       1  LIG1        0.0268
     38 H          -1.1134    9.1620    2.8394 H       1  LIG1        0.0268
     39 H          -0.1712    7.9630    2.4115 H       1  LIG1        0.0268
     40 C          -0.3150    9.4361    5.3948 C.3     1  LIG1       -0.0254
     41 H          -0.2158    9.1190    6.3064 H       1  LIG1        0.0268
     42 H          -1.1849    9.8511    5.2895 H       1  LIG1        0.0268
     43 H           0.3786   10.0858    5.2005 H       1  LIG1        0.0268
     44 C          -1.2412    7.2197    4.7637 C.3     1  LIG1       -0.0254
     45 H          -1.1897    6.4994    4.1164 H       1  LIG1        0.0268
     46 H          -2.1232    7.6222    4.7290 H       1  LIG1        0.0268
     47 H          -1.0811    6.8683    5.6536 H       1  LIG1        0.0268
@<TRIPOS>BOND
     1    19    18    1
     2    18    20   ar
     3    18    16   ar
     4    21    20    1
     5    17    16    1
     6    20    22   ar
     7    16    14   ar
     8    22    23    1
     9    22    13   ar
    10    14    15    1
    11    14    13   ar
    12    13    12    1
    13    39    36    1
    14    11     9    1
    15    37    36    1
    16    38    36    1
    17    12     9    1
    18    12     2    2
    19    36    35    1
    20     9    10    1
    21     9     7    1
    22     4    34    2
    23     2     5    1
    24    45    44    1
    25    34     5    1
    26    34     3    1
    27     8     7    1
    28    35     3    1
    29    35    44    1
    30    35    40    1
    31     7     5    1
    32     7    24    1
    33     5     6    1
    34    46    44    1
    35    44    47    1
    36    43    40    1
    37    42    40    1
    38    40    41    1
    39    24    25   ar
    40    24    32   ar
    41    26    25    1
    42    33    32    1
    43    25    27   ar
    44    32    30   ar
    45    27    28    1
    46    27    29   ar
    47    30    31    1
    48    30    29   ar
    49    29     1    1
