@<TRIPOS>MOLECULE
?
 56 61 0 0 0
SMALL
GASTEIGER

@<TRIPOS>ATOM
      1 N           9.6845    8.9937    2.5992 N.pl3   1  LIG1       -0.2443
      2 N          10.0462    7.6293    2.6017 N.pl3   1  LIG1       -0.2253
      3 N          12.4507    7.8538    2.0232 N.pl3   1  LIG1       -0.3059
      4 C          10.4251    9.8179    1.6368 C.3     1  LIG1        0.0582
      5 H           9.9100   10.6496    1.4838 H       1  LIG1        0.0532
      6 H          10.4585    9.3303    0.7756 H       1  LIG1        0.0532
      7 C          11.4511    7.4151    3.0105 C.3     1  LIG1        0.1336
      8 H          11.5869    8.0091    3.8034 H       1  LIG1        0.0778
      9 C          13.4735    6.8926    1.6006 C.3     1  LIG1        0.0183
     10 H          14.2002    7.3790    1.1351 H       1  LIG1        0.0467
     11 H          13.0732    6.2577    0.9550 H       1  LIG1        0.0467
     12 C          14.0625    6.1132    2.7596 C.3     1  LIG1       -0.0115
     13 H          14.7161    5.4486    2.4240 H       1  LIG1        0.0328
     14 H          14.5320    6.7279    3.3773 H       1  LIG1        0.0328
     15 C           9.2417    9.5095    3.8215 C.ar    1  LIG1        0.0482
     16 C           9.3506   10.8807    4.1201 C.ar    1  LIG1       -0.0391
     17 H           9.7663   11.4683    3.4999 H       1  LIG1        0.0637
     18 C           8.8504   11.3832    5.3251 C.ar    1  LIG1       -0.0600
     19 H           8.9305   12.3097    5.5159 H       1  LIG1        0.0618
     20 C           8.2407   10.5466    6.2430 C.ar    1  LIG1       -0.0616
     21 H           7.9066   10.8914    7.0622 H       1  LIG1        0.0618
     22 C           8.1238    9.1896    5.9485 C.ar    1  LIG1       -0.0600
     23 H           7.7002    8.6088    6.5695 H       1  LIG1        0.0618
     24 C           8.6191    8.6796    4.7583 C.ar    1  LIG1       -0.0391
     25 H           8.5348    7.7502    4.5766 H       1  LIG1        0.0637
     26 C           9.4597    6.9146    1.5250 C.ar    1  LIG1        0.0502
     27 C           8.1330    7.2008    1.1770 C.ar    1  LIG1       -0.0390
     28 H           7.6611    7.8835    1.6377 H       1  LIG1        0.0637
     29 C           7.5030    6.4888    0.1604 C.ar    1  LIG1       -0.0600
     30 H           6.6019    6.6879   -0.0633 H       1  LIG1        0.0618
     31 C           8.1754    5.4925   -0.5289 C.ar    1  LIG1       -0.0616
     32 H           7.7459    5.0221   -1.2346 H       1  LIG1        0.0618
     33 C           9.4814    5.1912   -0.1768 C.ar    1  LIG1       -0.0600
     34 H           9.9453    4.5005   -0.6375 H       1  LIG1        0.0618
     35 C          10.1256    5.8916    0.8497 C.ar    1  LIG1       -0.0390
     36 H          11.0188    5.6694    1.0874 H       1  LIG1        0.0637
     37 C          11.6735    6.0018    3.5270 C.ar    1  LIG1       -0.0045
     38 C          10.6348    5.3298    4.1743 C.ar    1  LIG1       -0.0549
     39 H           9.7716    5.7246    4.2056 H       1  LIG1        0.0621
     40 C          10.8435    4.0965    4.7723 C.ar    1  LIG1       -0.0614
     41 H          10.1242    3.6514    5.2041 H       1  LIG1        0.0618
     42 C          12.1015    3.5098    4.7411 C.ar    1  LIG1       -0.0615
     43 H          12.2530    2.6710    5.1606 H       1  LIG1        0.0618
     44 C          13.1355    4.1681    4.0863 C.ar    1  LIG1       -0.0582
     45 H          13.9939    3.7618    4.0485 H       1  LIG1        0.0620
     46 C          12.9428    5.4133    3.4826 C.ar    1  LIG1       -0.0393
     47 C          12.8336    9.2144    2.1402 C.ar    1  LIG1        0.0361
     48 C          14.1594    9.6068    2.3664 C.ar    1  LIG1       -0.0403
     49 H          14.8389    8.9477    2.4388 H       1  LIG1        0.0636
     50 C          14.4904   10.9554    2.4849 C.ar    1  LIG1       -0.0600
     51 H          15.3926   11.2074    2.6461 H       1  LIG1        0.0618
     52 C          13.5117   11.9305    2.3705 C.ar    1  LIG1       -0.0613
     53 H          13.7353   12.8504    2.4528 H       1  LIG1        0.0618
     54 C          12.2006   11.5431    2.1328 C.ar    1  LIG1       -0.0553
     55 H          11.5295   12.2107    2.0497 H       1  LIG1        0.0621
     56 C          11.8400   10.2043    2.0127 C.ar    1  LIG1       -0.0074
@<TRIPOS>BOND
     1    32    31    1
     2    34    33    1
     3    31    33   ar
     4    31    29   ar
     5    33    35   ar
     6    30    29    1
     7    29    27   ar
     8     6     4    1
     9    35    36    1
    10    35    26   ar
    11    11     9    1
    12    10     9    1
    13    27    26   ar
    14    27    28    1
    15     5     4    1
    16    26     2    1
    17     9     3    1
    18     9    12    1
    19     4    56    1
    20     4     1    1
    21    56    54   ar
    22    56    47   ar
    23     3    47    1
    24     3     7    1
    25    55    54    1
    26    54    52   ar
    27    47    48   ar
    28    48    49    1
    29    48    50   ar
    30    52    53    1
    31    52    50   ar
    32    13    12    1
    33    50    51    1
    34     1     2    1
    35     1    15    1
    36     2     7    1
    37    12    14    1
    38    12    46    1
    39     7    37    1
    40     7     8    1
    41    46    37   ar
    42    46    44   ar
    43    17    16    1
    44    37    38   ar
    45    15    16   ar
    46    15    24   ar
    47    45    44    1
    48    44    42   ar
    49    16    18   ar
    50    38    39    1
    51    38    40   ar
    52    25    24    1
    53    42    40   ar
    54    42    43    1
    55    24    22   ar
    56    40    41    1
    57    18    19    1
    58    18    20   ar
    59    22    20   ar
    60    22    23    1
    61    20    21    1
