@<TRIPOS>MOLECULE
C20 H24 Br N O3
 49 50 0 0 0
SMALL
GASTEIGER

@<TRIPOS>ATOM
      1 BR          3.6143   -3.0472   17.9388 Br      1  LIG1       -0.0503
      2 O           0.1690   -1.0196   12.4127 O.2     1  LIG1       -0.4575
      3 O          -2.4422    1.2840   12.4673 O.2     1  LIG1       -0.2688
      4 O           1.5267    1.9492    8.7361 O.2     1  LIG1       -0.2927
      5 N          -0.9267    0.2950   13.9203 N.am    1  LIG1       -0.1417
      6 C           2.5137   -2.2694   16.6101 C.ar    1  LIG1        0.0179
      7 C           1.6607   -1.2256   16.9373 C.ar    1  LIG1       -0.0470
      8 C           2.5551   -2.7899   15.3259 C.ar    1  LIG1       -0.0470
      9 C           0.8584   -0.6788   15.9891 C.ar    1  LIG1       -0.0487
     10 C           1.7286   -2.2401   14.3760 C.ar    1  LIG1       -0.0487
     11 C           0.8641   -1.1823   14.6891 C.ar    1  LIG1        0.0342
     12 C          -0.0077   -0.5997   13.6758 C.2     1  LIG1        0.2154
     13 C          -1.5145    0.5539   12.6784 C.2     1  LIG1        0.2868
     14 C          -0.7962   -0.2932   11.6018 C.3     1  LIG1        0.2048
     15 C          -1.7501   -1.2688   10.9297 C.3     1  LIG1       -0.0123
     16 C          -0.0231    0.5795   10.6500 C.2     1  LIG1       -0.0289
     17 C          -0.5053    1.0888    9.5400 C.2     1  LIG1       -0.0190
     18 C           0.3049    1.9725    8.6657 C.2     1  LIG1        0.1559
     19 C          -0.4131    2.8549    7.7034 C.3     1  LIG1        0.0099
     20 C           0.4731    3.8592    6.9874 C.3     1  LIG1       -0.0461
     21 C          -0.2815    4.7043    5.9671 C.3     1  LIG1       -0.0527
     22 C           0.6201    5.6807    5.2300 C.3     1  LIG1       -0.0531
     23 C          -0.1182    6.5078    4.1956 C.3     1  LIG1       -0.0533
     24 C           0.7696    7.4720    3.4304 C.3     1  LIG1       -0.0559
     25 C           0.0181    8.2963    2.4171 C.3     1  LIG1       -0.0653
     26 H           1.6366   -0.9163   17.8134 H       1  LIG1        0.0629
     27 H           3.1311   -3.4882   15.1113 H       1  LIG1        0.0629
     28 H           0.3118    0.0419   16.2055 H       1  LIG1        0.0625
     29 H           1.7244   -2.5824   13.5122 H       1  LIG1        0.0625
     30 H          -1.2438   -1.9065   10.4213 H       1  LIG1        0.0276
     31 H          -2.2660   -1.7291   11.5965 H       1  LIG1        0.0276
     32 H          -2.3404   -0.7898   10.3439 H       1  LIG1        0.0276
     33 H           0.8603    0.7800   10.8611 H       1  LIG1        0.0617
     34 H          -1.3821    0.8929    9.2990 H       1  LIG1        0.0650
     35 H          -0.8483    2.2914    7.0455 H       1  LIG1        0.0345
     36 H          -1.0842    3.3405    8.2083 H       1  LIG1        0.0345
     37 H           0.8657    4.4478    7.6506 H       1  LIG1        0.0269
     38 H           1.1761    3.3670    6.5353 H       1  LIG1        0.0269
     39 H          -0.6902    4.1031    5.3233 H       1  LIG1        0.0265
     40 H          -0.9734    5.1992    6.4315 H       1  LIG1        0.0265
     41 H           1.0272    6.2902    5.8651 H       1  LIG1        0.0265
     42 H           1.3145    5.1919    4.7603 H       1  LIG1        0.0265
     43 H          -0.5492    5.8857    3.5887 H       1  LIG1        0.0265
     44 H          -0.7952    7.0060    4.6812 H       1  LIG1        0.0265
     45 H           1.2145    8.0899    4.0320 H       1  LIG1        0.0263
     46 H           1.4375    6.9801    2.9273 H       1  LIG1        0.0263
     47 H          -0.6383    8.8169    2.8833 H       1  LIG1        0.0230
     48 H           0.6181    8.8833    1.9492 H       1  LIG1        0.0230
     49 H          -0.4179    7.7178    1.7891 H       1  LIG1        0.0230
@<TRIPOS>BOND
     1    49    25    1
     2    48    25    1
     3    25    47    1
     4    25    24    1
     5    46    24    1
     6    24    45    1
     7    24    23    1
     8    43    23    1
     9    23    44    1
    10    23    22    1
    11    42    22    1
    12    22    41    1
    13    22    21    1
    14    39    21    1
    15    21    40    1
    16    21    20    1
    17    38    20    1
    18    20    37    1
    19    20    19    1
    20    35    19    1
    21    19    36    1
    22    19    18    1
    23    18     4    2
    24    18    17    1
    25    34    17    1
    26    17    16    2
    27    32    15    1
    28    30    15    1
    29    16    33    1
    30    16    14    1
    31    15    31    1
    32    15    14    1
    33    14     2    1
    34    14    13    1
    35     2    12    1
    36     3    13    2
    37    13     5    1
    38    29    10    1
    39    12     5    2
    40    12    11    1
    41    10    11   ar
    42    10     8   ar
    43    11     9   ar
    44    27     8    1
    45     8     6   ar
    46     9    28    1
    47     9     7   ar
    48     6     7   ar
    49     6     1    1
    50     7    26    1
