@<TRIPOS>MOLECULE
?
 59 61 0 0 0
SMALL
GASTEIGER

@<TRIPOS>ATOM
      1 C           1.3572    0.0621    9.6245 C.3     1  LIG1        0.0645
      2 H           0.7864   -0.3016   10.3335 H       1  LIG1        0.0677
      3 H           2.1675   -0.4830    9.5464 H       1  LIG1        0.0677
      4 H           0.8699    0.0484    8.7743 H       1  LIG1        0.0677
      5 C           4.8549    0.6342   11.6893 C.ar    1  LIG1       -0.0489
      6 H           4.7117    0.1864   10.8638 H       1  LIG1        0.0625
      7 C           6.0110    0.3988   12.4365 C.ar    1  LIG1       -0.0610
      8 H           6.6574   -0.2180   12.1136 H       1  LIG1        0.0618
      9 C           6.2301    1.0461   13.6366 C.ar    1  LIG1       -0.0599
     10 H           7.0299    0.8762   14.1206 H       1  LIG1        0.0618
     11 C           5.2954    1.9471   14.1477 C.ar    1  LIG1       -0.0358
     12 H           5.4381    2.3870   14.9768 H       1  LIG1        0.0637
     13 C           4.1574    2.1724   13.4052 C.ar    1  LIG1        0.1046
     14 C           3.9225    1.5348   12.1748 C.ar    1  LIG1        0.0449
     15 C           2.6492    1.9675   11.5931 C.2     1  LIG1        0.1405
     16 C           1.9571    2.8697   12.3118 C.2     1  LIG1        0.1476
     17 C           0.6730    3.3237   11.7812 C.ar    1  LIG1        0.0469
     18 C          -0.2691    4.1388   12.3963 C.ar    1  LIG1       -0.0489
     19 H          -0.0906    4.5394   13.2388 H       1  LIG1        0.0625
     20 C          -1.4883    4.3561   11.7417 C.ar    1  LIG1       -0.0609
     21 H          -2.1449    4.9116   12.1467 H       1  LIG1        0.0618
     22 C          -1.7497    3.7732   10.5138 C.ar    1  LIG1       -0.0580
     23 H          -2.5907    3.9190   10.0962 H       1  LIG1        0.0619
     24 C          -0.7954    2.9716    9.8764 C.ar    1  LIG1       -0.0182
     25 H          -0.9724    2.5823    9.0281 H       1  LIG1        0.0657
     26 C           0.4123    2.7640   10.5152 C.ar    1  LIG1        0.1150
     27 C           2.8471    2.4472    8.7657 C.ar    1  LIG1        0.1060
     28 C           3.7646    1.6407    8.0966 C.ar    1  LIG1       -0.0188
     29 H           3.7973    0.7063    8.2665 H       1  LIG1        0.0657
     30 C           4.6316    2.2191    7.1764 C.ar    1  LIG1       -0.0580
     31 H           5.2624    1.6806    6.7133 H       1  LIG1        0.0619
     32 C           4.5742    3.5830    6.9369 C.ar    1  LIG1       -0.0615
     33 H           5.1658    3.9723    6.3047 H       1  LIG1        0.0618
     34 C           3.6652    4.3857    7.6078 C.ar    1  LIG1       -0.0580
     35 H           3.6403    5.3201    7.4388 H       1  LIG1        0.0619
     36 C           2.7927    3.8228    8.5266 C.ar    1  LIG1       -0.0188
     37 H           2.1649    4.3669    8.9876 H       1  LIG1        0.0657
     38 C           2.8917    7.3287   10.4402 C.3     2  LIG2        0.5487
     39 C          -0.5997    9.3447   12.8918 C.2     3  LIG3        0.1273
     40 C          -1.1011    8.1637   12.1302 C.3     3  LIG3       -0.0063
     41 H          -1.8554    8.4343   11.5668 H       3  LIG3        0.0306
     42 H          -1.3939    7.4705   12.7581 H       3  LIG3        0.0306
     43 H          -0.3820    7.8097   11.5653 H       3  LIG3        0.0306
     44 C           0.5600    9.1169   13.8081 C.3     3  LIG3       -0.0063
     45 H           0.7977    9.9598   14.2497 H       3  LIG3        0.0306
     46 H           1.3264    8.7916   13.2914 H       3  LIG3        0.0306
     47 H           0.3161    8.4512   14.4856 H       3  LIG3        0.0306
     48 S           2.8491    3.3023   13.7797 S.O2    1  LIG1        0.0302
     49 S           3.0470    8.6588    9.2069 S.3     2  LIG2        0.2092
     50 P           1.8023    1.7309   10.0232 P.3     1  LIG1        0.1131
     51 O           3.2982    4.6616   13.6827 O.2     1  LIG1       -0.1641
     52 O           2.1261    2.9091   14.9561 O.2     1  LIG1       -0.1641
     53 O           1.7974    9.3654    9.3166 O.2     2  LIG2       -0.1362
     54 O           3.2333    7.9381    7.9700 O.2     2  LIG2       -0.1362
     55 O           4.1931    9.3834    9.6724 O.3     2  LIG2       -0.0397
     56 O          -1.0934   10.4424   12.7677 O.2     3  LIG3       -0.2980
     57 F           1.8039    6.5903   10.2371 F       2  LIG2       -0.1486
     58 F           2.8250    7.8267   11.6747 F       2  LIG2       -0.1486
     59 F           3.9448    6.5046   10.3989 F       2  LIG2       -0.1486
@<TRIPOS>BOND
     1    33    32    1
     2    31    30    1
     3    32    30   ar
     4    32    34   ar
     5    30    28   ar
     6    35    34    1
     7    34    36   ar
     8    54    49    2
     9    28    29    1
    10    28    27   ar
    11    36    27   ar
    12    36    37    1
    13    27    50    1
    14     4     1    1
    15    25    24    1
    16    49    53    2
    17    49    55    1
    18    49    38    1
    19     3     1    1
    20     1    50    1
    21     1     2    1
    22    24    22   ar
    23    24    26   ar
    24    50    26    1
    25    50    15    1
    26    23    22    1
    27    57    38    1
    28    59    38    1
    29    38    58    1
    30    22    20   ar
    31    26    17   ar
    32     6     5    1
    33    43    40    1
    34    41    40    1
    35    15    14    1
    36    15    16    2
    37     5    14   ar
    38     5     7   ar
    39    20    21    1
    40    20    18   ar
    41    17    16    1
    42    17    18   ar
    43     8     7    1
    44    40    42    1
    45    40    39    1
    46    14    13   ar
    47    16    48    1
    48    18    19    1
    49     7     9   ar
    50    56    39    2
    51    39    44    1
    52    46    44    1
    53    13    48    1
    54    13    11   ar
    55     9    10    1
    56     9    11   ar
    57    51    48    2
    58    48    52    2
    59    44    45    1
    60    44    47    1
    61    11    12    1
