@<TRIPOS>MOLECULE
?
 41 43 0 0 0
SMALL
GASTEIGER

@<TRIPOS>ATOM
      1 N           6.2268    0.4273    2.7416 N.3     1  LIG1       -0.1757
      2 C           6.7475   -0.9591    2.8138 C.3     1  LIG1        0.0245
      3 H           7.1840   -1.1302    3.6853 H       1  LIG1        0.0447
      4 H           7.3973   -1.1333    2.0873 H       1  LIG1        0.0447
      5 C           5.5036   -1.8120    2.6493 C.3     1  LIG1       -0.0126
      6 H           5.5395   -2.6894    3.1278 H       1  LIG1        0.0325
      7 C           4.9274   -1.8935    1.1952 C.3     1  LIG1       -0.0178
      8 H           5.5257   -1.4431    0.5342 H       1  LIG1        0.0346
      9 C           3.8092   -0.9884    1.6416 C.2     1  LIG1       -0.0659
     10 C           4.3162   -0.8929    3.0794 C.3     1  LIG1       -0.0007
     11 H           3.7065   -1.2902    3.7661 H       1  LIG1        0.0362
     12 C           4.9429    0.4443    3.4766 C.3     1  LIG1        0.0273
     13 H           4.3764    1.2046    3.1915 H       1  LIG1        0.0450
     14 H           5.0896    0.4963    4.4541 H       1  LIG1        0.0450
     15 C           4.4862   -3.2693    0.7113 C.3     1  LIG1       -0.0584
     16 H           3.8998   -3.6790    1.3822 H       1  LIG1        0.0236
     17 H           5.2735   -3.8359    0.5762 H       1  LIG1        0.0236
     18 H           4.0007   -3.1776   -0.1351 H       1  LIG1        0.0236
     19 C           2.7534   -0.4739    1.0188 C.2     1  LIG1       -0.0873
     20 H           2.5632   -0.6624    0.0264 H       1  LIG1        0.0569
     21 C           1.7392    0.3893    1.6625 C.3     1  LIG1       -0.0465
     22 H           1.9083    0.4280    2.6277 H       1  LIG1        0.0272
     23 H           0.8461    0.0194    1.5018 H       1  LIG1        0.0272
     24 H           1.7916    1.2922    1.2844 H       1  LIG1        0.0272
     25 S           7.2565    1.6788    2.9654 S.O2    1  LIG1        0.0609
     26 O           6.4677    2.8754    2.8759 O.2     1  LIG1       -0.1528
     27 O           8.3505    1.4725    2.0652 O.2     1  LIG1       -0.1528
     28 C           7.8815    1.5500    4.6114 C.ar    1  LIG1        0.1055
     29 C           7.2656    2.2563    5.6333 C.ar    1  LIG1       -0.0351
     30 H           6.5360    2.8341    5.4418 H       1  LIG1        0.0637
     31 C           7.7207    2.1151    6.9344 C.ar    1  LIG1       -0.0570
     32 H           7.3092    2.6120    7.6316 H       1  LIG1        0.0621
     33 C           8.7746    1.2539    7.2329 C.ar    1  LIG1       -0.0503
     34 C           9.3685    0.5395    6.1918 C.ar    1  LIG1       -0.0570
     35 H          10.0808   -0.0591    6.3845 H       1  LIG1        0.0621
     36 C           8.9404    0.6847    4.8847 C.ar    1  LIG1       -0.0351
     37 H           9.3616    0.2018    4.1839 H       1  LIG1        0.0637
     38 C           9.2571    1.0792    8.6493 C.3     1  LIG1       -0.0397
     39 H          10.1254    1.5205    8.7560 H       1  LIG1        0.0278
     40 H           9.3502    0.1233    8.8476 H       1  LIG1        0.0278
     41 H           8.6090    1.4787    9.2669 H       1  LIG1        0.0278
@<TRIPOS>BOND
     1    18    15    1
     2    20    19    1
     3     8     7    1
     4    17    15    1
     5    15     7    1
     6    15    16    1
     7    19     9    2
     8    19    21    1
     9     7     9    1
    10     7     5    1
    11    24    21    1
    12    23    21    1
    13     9    10    1
    14    21    22    1
    15    27    25    2
    16     4     2    1
    17     5     2    1
    18     5    10    1
    19     5     6    1
    20     1     2    1
    21     1    25    1
    22     1    12    1
    23     2     3    1
    24    26    25    2
    25    25    28    1
    26    10    12    1
    27    10    11    1
    28    13    12    1
    29    12    14    1
    30    37    36    1
    31    28    36   ar
    32    28    29   ar
    33    36    34   ar
    34    30    29    1
    35    29    31   ar
    36    34    35    1
    37    34    33   ar
    38    31    33   ar
    39    31    32    1
    40    33    38    1
    41    38    39    1
    42    38    40    1
    43    38    41    1
