@<TRIPOS>MOLECULE
?
 52 54 0 0 0
SMALL
GASTEIGER

@<TRIPOS>ATOM
      1 BR         -0.8331   -2.1739   10.1646 Br      1  LIG1       -0.0503
      2 O           5.1582    1.8719    9.6713 O.2     1  LIG1       -0.2504
      3 N           2.9647    3.1288   11.5167 N.3     1  LIG1       -0.2896
      4 O           6.0328    3.4769    8.3717 O.3     1  LIG1       -0.4677
      5 O           1.3884    3.6652    7.4289 O.3     1  LIG1       -0.4677
      6 O           3.4019    2.7313    7.2678 O.2     1  LIG1       -0.2505
      7 O           6.4349    3.9673   11.6985 O.2     1  LIG1       -0.2483
      8 O           5.0590    2.8351   13.0526 O.3     1  LIG1       -0.4664
      9 C           4.2564    4.0995    9.7427 C.3     1  LIG1        0.1037
     10 H           4.6265    4.9681    9.4812 H       1  LIG1        0.0449
     11 C           4.0628    4.0618   11.2869 C.3     1  LIG1        0.1568
     12 C           2.8012    3.9907    9.2478 C.3     1  LIG1        0.0912
     13 H           2.4646    4.9087    9.1893 H       1  LIG1        0.0441
     14 C           5.3302    3.6192   12.0161 C.2     1  LIG1        0.3327
     15 C           4.5244    6.5563   11.5073 C.ar    1  LIG1       -0.0563
     16 H           5.2686    6.4408   10.9634 H       1  LIG1        0.0621
     17 C           1.8789    0.9004    9.6047 C.ar    1  LIG1       -0.0560
     18 H           2.7276    0.9908    9.2342 H       1  LIG1        0.0621
     19 C           1.9975    3.3037   10.4163 C.3     1  LIG1        0.0479
     20 H           1.3263    3.9497   10.7220 H       1  LIG1        0.0519
     21 C           1.2454   -0.3289    9.5542 C.ar    1  LIG1       -0.0475
     22 H           1.6556   -1.0544    9.1401 H       1  LIG1        0.0629
     23 C           2.6068    3.3874    7.8862 C.2     1  LIG1        0.3127
     24 C          -0.6266    0.6042   10.6715 C.ar    1  LIG1       -0.0475
     25 H          -1.4826    0.5079   11.0224 H       1  LIG1        0.0629
     26 C           0.0024    1.8343   10.7122 C.ar    1  LIG1       -0.0560
     27 H          -0.4342    2.5623   11.0911 H       1  LIG1        0.0621
     28 C           1.2809    1.9907   10.1903 C.ar    1  LIG1       -0.0296
     29 C           3.7287    5.4626   11.8165 C.ar    1  LIG1       -0.0158
     30 C           2.6171    5.6702   12.6365 C.ar    1  LIG1       -0.0563
     31 H           2.0647    4.9555   12.8582 H       1  LIG1        0.0621
     32 C           4.2291    7.8082   11.9922 C.ar    1  LIG1       -0.0614
     33 H           4.7673    8.5320   11.7635 H       1  LIG1        0.0618
     34 C           5.1748    2.9991    9.2669 C.2     1  LIG1        0.3135
     35 C           3.1431    7.9973   12.8133 C.ar    1  LIG1       -0.0617
     36 H           2.9552    8.8400   13.1586 H       1  LIG1        0.0618
     37 C           1.0445    3.1095    6.1491 C.3     1  LIG1        0.0817
     38 H           0.1503    3.3698    5.9161 H       1  LIG1        0.0661
     39 H           1.0979    2.1514    6.1912 H       1  LIG1        0.0661
     40 H           1.6558    3.4351    5.4838 H       1  LIG1        0.0661
     41 C           6.9003    2.5045    7.7394 C.3     1  LIG1        0.0817
     42 H           7.4766    2.9497    7.1134 H       1  LIG1        0.0661
     43 H           6.3675    1.8535    7.2762 H       1  LIG1        0.0661
     44 H           7.4313    2.0669    8.4089 H       1  LIG1        0.0661
     45 C           0.0059   -0.4619   10.1213 C.ar    1  LIG1        0.0179
     46 C           6.1887    2.4142   13.8548 C.3     1  LIG1        0.0817
     47 H           5.8820    1.8493   14.5678 H       1  LIG1        0.0661
     48 H           6.6259    3.1857   14.2225 H       1  LIG1        0.0661
     49 H           6.8072    1.9271   13.3060 H       1  LIG1        0.0661
     50 C           2.3384    6.9237   13.1165 C.ar    1  LIG1       -0.0614
     51 H           1.5921    7.0509   13.6569 H       1  LIG1        0.0618
     52 H           3.2720    2.3681   11.5122 H       1  LIG1        0.1239
@<TRIPOS>BOND
     1    40    37    1
     2    38    37    1
     3    37    39    1
     4    37     5    1
     5    42    41    1
     6     6    23    2
     7    43    41    1
     8     5    23    1
     9    41     4    1
    10    41    44    1
    11    23    12    1
    12     4    34    1
    13    22    21    1
    14    13    12    1
    15    18    17    1
    16    12     9    1
    17    12    19    1
    18    34     2    2
    19    34     9    1
    20    10     9    1
    21    21    17   ar
    22    21    45   ar
    23    17    28   ar
    24     9    11    1
    25    45     1    1
    26    45    24   ar
    27    28    19    1
    28    28    26   ar
    29    19    20    1
    30    19     3    1
    31    24    26   ar
    32    24    25    1
    33    26    27    1
    34    16    15    1
    35    11     3    1
    36    11    29    1
    37    11    14    1
    38    15    29   ar
    39    15    32   ar
    40    52     3    1
    41     7    14    2
    42    33    32    1
    43    29    30   ar
    44    32    35   ar
    45    14     8    1
    46    30    31    1
    47    30    50   ar
    48    35    50   ar
    49    35    36    1
    50     8    46    1
    51    50    51    1
    52    49    46    1
    53    46    48    1
    54    46    47    1
