@<TRIPOS>MOLECULE
6-Bromo-2,3-dimethoxyphenol
 21 21 0 0 0
SMALL
GASTEIGER

@<TRIPOS>ATOM
      1 BR          2.6044    6.4151    1.5047 Br      1  LIG1       -0.0464
      2 C           0.7526    6.7259    1.2527 C.ar    1  LIG1        0.0631
      3 C           0.3069    7.5205    0.2142 C.ar    1  LIG1       -0.0405
      4 C          -1.0464    7.7906    0.0611 C.ar    1  LIG1       -0.0150
      5 C          -1.9626    7.2558    0.9602 C.ar    1  LIG1        0.1652
      6 O          -3.3068    7.4756    0.9335 O.3     1  LIG1       -0.4913
      7 C          -3.7911    8.3507   -0.0998 C.3     1  LIG1        0.0790
      8 C          -1.5062    6.4115    1.9798 C.ar    1  LIG1        0.2044
      9 C          -0.1506    6.1472    2.1364 C.ar    1  LIG1        0.1764
     10 O           0.3016    5.3434    3.1322 O.3     1  LIG1       -0.5025
     11 O          -2.3763    5.8538    2.9056 O.3     1  LIG1       -0.4885
     12 C          -3.2310    4.8231    2.3584 C.3     1  LIG1        0.0791
     13 H           0.9309    7.8892   -0.3734 H       1  LIG1        0.0631
     14 H          -1.3292    8.3373   -0.6410 H       1  LIG1        0.0656
     15 H          -4.7450    8.3941   -0.0069 H       1  LIG1        0.0660
     16 H          -3.4226    9.2370    0.0112 H       1  LIG1        0.0660
     17 H          -3.5620    8.0004   -0.9834 H       1  LIG1        0.0660
     18 H          -3.8619    4.5785    3.0355 H       1  LIG1        0.0660
     19 H          -3.6935    5.1434    1.5780 H       1  LIG1        0.0660
     20 H          -2.7062    4.0680    2.1312 H       1  LIG1        0.0660
     21 H          -0.2631    5.0945    3.6730 H       1  LIG1        0.2923
@<TRIPOS>BOND
     1    17     7    1
     2    14     4    1
     3    13     3    1
     4     7    15    1
     5     7    16    1
     6     7     6    1
     7     4     3   ar
     8     4     5   ar
     9     3     2   ar
    10     6     5    1
    11     5     8   ar
    12     2     1    1
    13     2     9   ar
    14    19    12    1
    15     8     9   ar
    16     8    11    1
    17    20    12    1
    18     9    10    1
    19    12    11    1
    20    12    18    1
    21    10    21    1
