@<TRIPOS>MOLECULE
?
 26 27 0 0 0
SMALL
GASTEIGER

@<TRIPOS>ATOM
      1 C           3.2478    3.0116   11.3275 C.2     1  LIG1        0.2144
      2 N           3.8536    4.1456   11.6712 N.am    1  LIG1       -0.3291
      3 H           4.6671    4.1257   12.0056 H       1  LIG1        0.1449
      4 H           3.4405    4.9151   11.5640 H       1  LIG1        0.1449
      5 O           3.7831    1.9000   11.4575 O.2     1  LIG1       -0.2757
      6 C           1.8654    3.1602   10.7678 C.3     1  LIG1        0.0455
      7 H           1.2660    3.7938   11.2578 H       1  LIG1        0.0403
      8 C           1.1918    1.9715   10.1601 C.3     1  LIG1       -0.0310
      9 H           0.2188    1.8688   10.3125 H       1  LIG1        0.0281
     10 H           1.6977    1.1208   10.1368 H       1  LIG1        0.0281
     11 C           1.6379    3.0688    9.2386 C.3     1  LIG1        0.0048
     12 C           2.8496    2.7895    8.3739 C.3     1  LIG1       -0.0548
     13 H           2.5607    2.3988    7.5227 H       1  LIG1        0.0238
     14 H           3.4431    2.1614    8.8365 H       1  LIG1        0.0238
     15 H           3.3294    3.6269    8.2034 H       1  LIG1        0.0238
     16 C           0.6039    4.0124    8.6865 C.ar    1  LIG1       -0.0407
     17 C          -0.6199    4.2120    9.3387 C.ar    1  LIG1       -0.0580
     18 H          -0.8191    3.7101   10.1197 H       1  LIG1        0.0620
     19 C          -1.5438    5.1270    8.8650 C.ar    1  LIG1       -0.0615
     20 H          -2.3651    5.2496    9.3268 H       1  LIG1        0.0618
     21 C          -1.2810    5.8659    7.7230 C.ar    1  LIG1       -0.0617
     22 H          -1.9149    6.4965    7.4019 H       1  LIG1        0.0618
     23 C          -0.0854    5.6744    7.0565 C.ar    1  LIG1       -0.0615
     24 H           0.1032    6.1728    6.2699 H       1  LIG1        0.0618
     25 C           0.8435    4.7528    7.5344 C.ar    1  LIG1       -0.0580
     26 H           1.6582    4.6271    7.0628 H       1  LIG1        0.0620
@<TRIPOS>BOND
     1    24    23    1
     2    23    25   ar
     3    23    21   ar
     4    26    25    1
     5    22    21    1
     6    13    12    1
     7    25    16   ar
     8    21    19   ar
     9    15    12    1
    10    12    14    1
    11    12    11    1
    12    16    11    1
    13    16    17   ar
    14    19    20    1
    15    19    17   ar
    16    11     8    1
    17    11     6    1
    18    17    18    1
    19    10     8    1
    20     8     9    1
    21     8     6    1
    22     6     7    1
    23     6     1    1
    24     1     5    2
    25     1     2   am
    26     4     2    1
    27     2     3    1
