@<TRIPOS>MOLECULE
?
 49 52 0 0 0
SMALL
GASTEIGER

@<TRIPOS>ATOM
      1 N           2.3728   -0.1941    6.4659 N.4     1  LIG1        1.0000
      2 B           2.5464    1.4479    6.2407 B       1  LIG1        0.0000
      3 O           3.9542    1.6759    6.6117 O.3     1  LIG1        0.0000
      4 O           5.8740    0.5306    6.6317 O.2     1  LIG1        0.0000
      5 O           1.7827    0.2804    3.0068 O.2     1  LIG1        0.0000
      6 O           2.4464    1.5179    4.7529 O.3     1  LIG1        0.0000
      7 C           4.6703    0.5651    6.5558 C.2     1  LIG1        0.0000
      8 C           3.7954   -0.6541    6.3661 C.3     1  LIG1        0.0000
      9 H           3.9631   -1.0623    5.4795 H       1  LIG1        0.0000
     10 H           3.9889   -1.3274    7.0651 H       1  LIG1        0.0000
     11 C           1.5895   -0.5893    5.2499 C.3     1  LIG1        0.0000
     12 H           0.6176   -0.5651    5.4381 H       1  LIG1        0.0000
     13 H           1.8342   -1.5037    4.9594 H       1  LIG1        0.0000
     14 C           1.9512    0.4249    4.1840 C.2     1  LIG1        0.0000
     15 C           1.5274    2.3956    6.9652 C.2     1  LIG1        0.0000
     16 H           0.5999    2.2463    6.8219 H       1  LIG1        0.0000
     17 C           1.8810    3.3918    7.7637 C.2     1  LIG1        0.0000
     18 H           2.8034    3.4652    7.9789 H       1  LIG1        0.0000
     19 C           0.9644    4.4093    8.3562 C.3     1  LIG1        0.0000
     20 H           1.0439    4.3928    9.3321 H       1  LIG1        0.0000
     21 H           0.0408    4.2056    8.0999 H       1  LIG1        0.0000
     22 H           1.2058    5.2997    8.0236 H       1  LIG1        0.0000
     23 C           1.6707   -0.6266    7.7559 C.3     1  LIG1        0.0000
     24 H           0.7654   -0.2015    7.7368 H       1  LIG1        0.0000
     25 C           1.4275   -2.1681    7.8040 C.3     1  LIG1        0.0000
     26 H           2.1195   -2.6000    7.2264 H       1  LIG1        0.0000
     27 C           1.6231   -2.6922    9.2298 C.3     1  LIG1        0.0000
     28 H           1.3823   -3.6558    9.3463 H       1  LIG1        0.0000
     29 C           1.0713   -1.7545   10.3592 C.3     1  LIG1        0.0000
     30 C           2.4305   -1.0076   10.1870 C.3     1  LIG1        0.0000
     31 H           2.8182   -0.6319   11.0289 H       1  LIG1        0.0000
     32 C           2.3961   -0.0445    8.9987 C.3     1  LIG1        0.0000
     33 H           3.3248    0.1895    8.7476 H       1  LIG1        0.0000
     34 H           1.9393    0.7896    9.2754 H       1  LIG1        0.0000
     35 C           3.0487   -2.3339    9.7203 C.3     1  LIG1        0.0000
     36 H           3.3845   -2.9089   10.4531 H       1  LIG1        0.0000
     37 H           3.7177   -2.2408    8.9963 H       1  LIG1        0.0000
     38 C           0.0449   -2.5912    7.2690 C.3     1  LIG1        0.0000
     39 H          -0.0412   -3.5660    7.3213 H       1  LIG1        0.0000
     40 H          -0.0458   -2.3043    6.3355 H       1  LIG1        0.0000
     41 H          -0.6563   -2.1718    7.8088 H       1  LIG1        0.0000
     42 C          -0.2213   -0.9528   10.2034 C.3     1  LIG1        0.0000
     43 H          -0.9857   -1.5650   10.1936 H       1  LIG1        0.0000
     44 H          -0.1942   -0.4501    9.3627 H       1  LIG1        0.0000
     45 H          -0.3109   -0.3297   10.9536 H       1  LIG1        0.0000
     46 C           0.9797   -2.5190   11.6875 C.3     1  LIG1        0.0000
     47 H           0.2096   -3.1246   11.6635 H       1  LIG1        0.0000
     48 H           0.8721   -1.8826   12.4247 H       1  LIG1        0.0000
     49 H           1.7994   -3.0392   11.8227 H       1  LIG1        0.0000
@<TRIPOS>BOND
     1     5    14    2
     2    14     6    1
     3    14    11    1
     4     6     2    1
     5    13    11    1
     6    11    12    1
     7    11     1    1
     8     9     8    1
     9     2     1    1
    10     2     3    1
    11     2    15    1
    12    40    38    1
    13     8     1    1
    14     8     7    1
    15     8    10    1
    16     1    23    1
    17     7     3    1
    18     7     4    2
    19    16    15    1
    20    15    17    2
    21    26    25    1
    22    38    39    1
    23    38    25    1
    24    38    41    1
    25    24    23    1
    26    23    25    1
    27    23    32    1
    28    17    18    1
    29    17    19    1
    30    25    27    1
    31    22    19    1
    32    21    19    1
    33    19    20    1
    34    33    32    1
    35    37    35    1
    36    32    34    1
    37    32    30    1
    38    27    28    1
    39    27    35    1
    40    27    29    1
    41    44    42    1
    42    35    30    1
    43    35    36    1
    44    30    29    1
    45    30    31    1
    46    43    42    1
    47    42    29    1
    48    42    45    1
    49    29    46    1
    50    47    46    1
    51    46    49    1
    52    46    48    1
