@<TRIPOS>MOLECULE
?
 42 44 0 0 0
SMALL
GASTEIGER

@<TRIPOS>ATOM
      1 BR          4.8443   10.6739    1.7487 Br      1  LIG1       -0.0895
      2 S           0.7819    9.9258    4.9304 S.O2    1  LIG1        0.0616
      3 O           0.4542   10.3027    3.5829 O.2     1  LIG1       -0.1528
      4 O           0.1686    8.7674    5.5275 O.2     1  LIG1       -0.1528
      5 O          -1.4818   15.4164    7.8910 O.2     1  LIG1       -0.1261
      6 O          -0.9068   14.2808    9.6494 O.2     1  LIG1       -0.1261
      7 N           2.3717    9.7042    5.0270 N.3     1  LIG1       -0.1654
      8 N          -0.9946   14.4305    8.4406 N.pl3   1  LIG1        0.0564
      9 C           3.3617   10.0014    2.8356 C.3     1  LIG1        0.0275
     10 H           2.5064   10.2799    2.4218 H       1  LIG1        0.0404
     11 H           3.3878    9.0108    2.8391 H       1  LIG1        0.0404
     12 C           3.4048   10.5062    4.2790 C.3     1  LIG1        0.0774
     13 C           4.6949   10.0365    4.9779 C.3     1  LIG1       -0.0267
     14 H           5.4540   10.0299    4.3423 H       1  LIG1        0.0287
     15 H           4.9197   10.6344    5.7345 H       1  LIG1        0.0287
     16 C           4.3986    8.6310    5.4749 C.3     1  LIG1       -0.0365
     17 H           5.0229    8.3683    6.1973 H       1  LIG1        0.0279
     18 H           4.4594    7.9726    4.7390 H       1  LIG1        0.0279
     19 C           2.9698    8.7398    5.9975 C.3     1  LIG1        0.0216
     20 H           2.5072    7.8650    5.9712 H       1  LIG1        0.0444
     21 H           2.9483    9.0962    6.9212 H       1  LIG1        0.0444
     22 C           3.1477   12.0099    4.4382 C.ar    1  LIG1       -0.0248
     23 C           2.7558   12.8186    3.3681 C.ar    1  LIG1       -0.0567
     24 H           2.6796   12.4416    2.4986 H       1  LIG1        0.0621
     25 C           2.4772   14.1589    3.5594 C.ar    1  LIG1       -0.0614
     26 H           2.2062   14.6951    2.8235 H       1  LIG1        0.0618
     27 C           2.5903   14.7267    4.8250 C.ar    1  LIG1       -0.0617
     28 H           2.4025   15.6478    4.9545 H       1  LIG1        0.0618
     29 C           2.9760   13.9453    5.8824 C.ar    1  LIG1       -0.0614
     30 H           3.0514   14.3311    6.7477 H       1  LIG1        0.0618
     31 C           3.2601   12.5834    5.7010 C.ar    1  LIG1       -0.0567
     32 H           3.5295   12.0523    6.4412 H       1  LIG1        0.0621
     33 C           0.3225   11.2934    5.9627 C.ar    1  LIG1        0.1056
     34 C          -0.1470   12.4698    5.3754 C.ar    1  LIG1       -0.0332
     35 H          -0.1694   12.5619    4.4297 H       1  LIG1        0.0638
     36 C          -0.5781   13.4956    6.1931 C.ar    1  LIG1       -0.0296
     37 H          -0.9222   14.2963    5.8176 H       1  LIG1        0.0641
     38 C          -0.5019   13.3424    7.5625 C.ar    1  LIG1        0.1263
     39 C          -0.0246   12.1875    8.1619 C.ar    1  LIG1       -0.0296
     40 H           0.0239   12.1125    9.1076 H       1  LIG1        0.0641
     41 C           0.3795   11.1465    7.3378 C.ar    1  LIG1       -0.0332
     42 H           0.6951   10.3337    7.7175 H       1  LIG1        0.0638
@<TRIPOS>BOND
     1     1     9    1
     2    10     9    1
     3    24    23    1
     4    26    25    1
     5     9    11    1
     6     9    12    1
     7    23    25   ar
     8    23    22   ar
     9    25    27   ar
    10     3     2    2
    11    12    22    1
    12    12    13    1
    13    12     7    1
    14    14    13    1
    15    35    34    1
    16    22    31   ar
    17    18    16    1
    18    27    28    1
    19    27    29   ar
    20     2     7    1
    21     2     4    2
    22     2    33    1
    23    13    16    1
    24    13    15    1
    25     7    19    1
    26    34    33   ar
    27    34    36   ar
    28    16    19    1
    29    16    17    1
    30    31    29   ar
    31    31    32    1
    32    37    36    1
    33    29    30    1
    34    33    41   ar
    35    20    19    1
    36    19    21    1
    37    36    38   ar
    38    41    42    1
    39    41    39   ar
    40    38    39   ar
    41    38     8    1
    42     5     8    2
    43    39    40    1
    44     8     6    2
