@<TRIPOS>MOLECULE
C18 B1 Cl5 F10
 34 36 0 0 0
SMALL
GASTEIGER

@<TRIPOS>ATOM
      1 B           6.1698    4.5865    3.3903 B       1  LIG1        0.0000
      2 C           6.3532    4.3359    4.9400 C.ar    1  LIG1        0.0000
      3 C           5.7420    3.2623    5.5879 C.ar    1  LIG1        0.0000
      4 C           5.8580    3.0758    6.9627 C.ar    1  LIG1        0.0000
      5 C           6.6196    3.9758    7.7098 C.ar    1  LIG1        0.0000
      6 C           7.2541    5.0578    7.0865 C.ar    1  LIG1        0.0000
      7 C           7.1091    5.2149    5.7146 C.ar    1  LIG1        0.0000
      8 C           5.2940    5.8168    2.9360 C.ar    1  LIG1        0.0000
      9 C           4.0172    6.0385    3.4253 C.ar    1  LIG1        0.0000
     10 C           3.2256    7.0897    3.0088 C.ar    1  LIG1        0.0000
     11 C           3.7387    8.0059    2.1160 C.ar    1  LIG1        0.0000
     12 C           5.0136    7.8414    1.6311 C.ar    1  LIG1        0.0000
     13 C           5.7566    6.7491    2.0258 C.ar    1  LIG1        0.0000
     14 C           6.8123    3.6396    2.3307 C.ar    1  LIG1        0.0000
     15 C           6.2721    3.4781    1.0500 C.ar    1  LIG1        0.0000
     16 C           6.7743    2.5972    0.1167 C.ar    1  LIG1        0.0000
     17 C           7.8730    1.8308    0.4500 C.ar    1  LIG1        0.0000
     18 C           8.4405    1.9409    1.6995 C.ar    1  LIG1        0.0000
     19 C           7.9169    2.8321    2.6116 C.ar    1  LIG1        0.0000
     20 CL          4.8114    2.1541    4.6400 Cl      1  LIG1        0.0000
     21 CL          5.0782    1.7545    7.7334 Cl      1  LIG1        0.0000
     22 CL          6.7941    3.7469    9.4050 Cl      1  LIG1        0.0000
     23 CL          8.1869    6.1620    8.0025 Cl      1  LIG1        0.0000
     24 CL          7.9182    6.5064    4.8925 Cl      1  LIG1        0.0000
     25 F           3.4894    5.1687    4.3157 F       1  LIG1        0.0000
     26 F           1.9807    7.2354    3.4914 F       1  LIG1        0.0000
     27 F           3.0003    9.0525    1.7339 F       1  LIG1        0.0000
     28 F           5.5378    8.7386    0.7724 F       1  LIG1        0.0000
     29 F           6.9952    6.6199    1.5044 F       1  LIG1        0.0000
     30 F           5.1841    4.1662    0.6888 F       1  LIG1        0.0000
     31 F           6.1876    2.4645   -1.0733 F       1  LIG1        0.0000
     32 F           8.3795    0.9619   -0.4273 F       1  LIG1        0.0000
     33 F           9.4934    1.1703    2.0067 F       1  LIG1        0.0000
     34 F           8.5204    2.9092    3.8079 F       1  LIG1        0.0000
@<TRIPOS>BOND
     1    31    16    1
     2    32    17    1
     3    16    17   ar
     4    16    15   ar
     5    17    18   ar
     6    30    15    1
     7    28    12    1
     8    15    14   ar
     9    29    13    1
    10    12    13   ar
    11    12    11   ar
    12    18    33    1
    13    18    19   ar
    14    27    11    1
    15    13     8   ar
    16    11    10   ar
    17    14    19   ar
    18    14     1    1
    19    19    34    1
    20     8     1    1
    21     8     9   ar
    22    10     9   ar
    23    10    26    1
    24     1     2    1
    25     9    25    1
    26    20     3    1
    27    24     7    1
    28     2     3   ar
    29     2     7   ar
    30     3     4   ar
    31     7     6   ar
    32     4     5   ar
    33     4    21    1
    34     6     5   ar
    35     6    23    1
    36     5    22    1
