@<TRIPOS>MOLECULE
?
 23 26 0 0 0
SMALL
GASTEIGER

@<TRIPOS>ATOM
      1 C           4.7446    2.1571    6.4900 C.ar    1  LIG1       -0.0534
      2 H           4.2619    2.6363    7.1245 H       1  LIG1        0.0624
      3 C           5.7779    2.7898    5.7831 C.ar    1  LIG1       -0.0090
      4 C           6.5631    3.9488    6.2541 C.ar    1  LIG1       -0.0089
      5 C           7.7141    4.2706    5.5456 C.ar    1  LIG1       -0.0006
      6 C           8.8863    4.7595    6.2330 C.ar    1  LIG1       -0.0007
      7 C           4.4382    0.8404    6.2582 C.ar    1  LIG1       -0.0606
      8 H           3.6932    0.4739    6.6779 H       1  LIG1        0.0618
      9 C           6.3381    2.0207    4.7443 C.ar    1  LIG1       -0.0015
     10 C           6.1901    0.6145    4.6475 C.ar    1  LIG1       -0.0126
     11 C           7.4544    0.0996    3.9820 C.2     1  LIG1       -0.0270
     12 C           8.1808    1.2457    3.6086 C.2     1  LIG1       -0.0046
     13 C           7.4992    2.4163    4.0235 C.ar    1  LIG1       -0.0004
     14 C           8.1641    3.5553    4.3920 C.ar    1  LIG1       -0.0000
     15 C           5.2124    0.0195    5.4048 C.ar    1  LIG1       -0.0537
     16 H           5.0634   -0.8973    5.3593 H       1  LIG1        0.0624
     17 C           8.1756   -1.0750    4.1561 C.3     1  LIG1        0.0001
     18 H           7.7205   -1.8768    4.2749 H       1  LIG1        0.0361
     19 C           6.5055    4.4633    7.5874 C.ar    1  LIG1       -0.0528
     20 H           5.6944    4.4347    8.0405 H       1  LIG1        0.0624
     21 C           7.6037    5.0011    8.2333 C.ar    1  LIG1       -0.0528
     22 H           7.5125    5.3409    9.0948 H       1  LIG1        0.0624
     23 C           8.8863    5.0376    7.5809 C.ar    1  LIG1       -0.0089
@<TRIPOS>BOND
     1    12    11    2
     2    12    13    1
     3    11    17    1
     4    11    10    1
     5    13    14   ar
     6    13     9   ar
     7    17    18    1
     8    14     5   ar
     9    10     9   ar
    10    10    15   ar
    11     9     3   ar
    12    16    15    1
    13    15     7   ar
    14     5     6   ar
    15     5     4   ar
    16     3     4   ar
    17     3     1   ar
    18     6    23   ar
    19     4    19   ar
    20     7     1   ar
    21     7     8    1
    22     1     2    1
    23    23    21   ar
    24    19    20    1
    25    19    21   ar
    26    21    22    1
