@<TRIPOS>MOLECULE
C62 H54 N2 O8
 63 66 0 0 0
SMALL
GASTEIGER

@<TRIPOS>ATOM
      1 O           5.2314   -0.5039   10.6875 O.3     1  LIG1       -0.4951
      2 O          11.7563   -2.7352    4.1015 O.3     1  LIG1       -0.4951
      3 O           2.9593   -0.0436    0.1083 O.3     1  LIG1       -0.4249
      4 O           1.9008    0.6499   -1.7617 O.2     1  LIG1       -0.2493
      5 N           6.5160   -1.2722    5.3067 N.pl3   1  LIG1       -0.2692
      6 C           5.5934    0.0832    7.1381 C.ar    1  LIG1       -0.0366
      7 H           5.3948    0.7760    6.5193 H       1  LIG1        0.0637
      8 C           5.5850   -0.7575    9.3883 C.ar    1  LIG1        0.1202
      9 C           8.0824   -2.8592    4.2890 C.ar    1  LIG1       -0.0366
     10 H           7.3502   -3.4045    4.0290 H       1  LIG1        0.0637
     11 C           5.2854    0.2465    8.4712 C.ar    1  LIG1       -0.0182
     12 H           4.8671    1.0470    8.7665 H       1  LIG1        0.0655
     13 C           9.3769   -3.2476    3.9705 C.ar    1  LIG1       -0.0182
     14 H           9.5320   -4.0469    3.4818 H       1  LIG1        0.0655
     15 C           5.9166   -0.8711    2.9777 C.ar    1  LIG1       -0.0393
     16 H           6.8345   -0.8537    2.7312 H       1  LIG1        0.0636
     17 C          10.2132   -1.2921    5.0950 C.ar    1  LIG1       -0.0182
     18 H          10.9478   -0.7647    5.3852 H       1  LIG1        0.0655
     19 C           6.1949   -1.0948    6.6905 C.ar    1  LIG1        0.0390
     20 C           7.8490   -1.6817    4.9847 C.ar    1  LIG1        0.0390
     21 C           0.6512   -0.0695    0.2133 C.3     1  LIG1        0.1309
     22 C          10.4384   -2.4571    4.3739 C.ar    1  LIG1        0.1202
     23 C           4.9390   -0.6751    2.0180 C.ar    1  LIG1       -0.0493
     24 H           5.1988   -0.5145    1.1177 H       1  LIG1        0.0625
     25 C           6.2044   -1.9209    8.9592 C.ar    1  LIG1       -0.0182
     26 H           6.4270   -2.6038    9.5803 H       1  LIG1        0.0655
     27 C           3.2273   -0.9579    3.6733 C.ar    1  LIG1       -0.0493
     28 H           2.3093   -1.0015    3.9144 H       1  LIG1        0.0625
     29 C           4.1897   -1.1410    4.6379 C.ar    1  LIG1       -0.0393
     30 H           3.9270   -1.3010    5.5372 H       1  LIG1        0.0636
     31 C          12.0142   -3.7153    3.0946 C.3     1  LIG1        0.0788
     32 H          12.9821   -3.8280    2.9884 H       1  LIG1        0.0660
     33 H          11.6246   -3.4206    2.2448 H       1  LIG1        0.0660
     34 H          11.6123   -4.5690    3.3602 H       1  LIG1        0.0660
     35 C           2.5363   -0.4509    1.3747 C.2     1  LIG1        0.1360
     36 C           3.5767   -0.7084    2.3407 C.ar    1  LIG1        0.0172
     37 C           1.8144    0.2273   -0.6449 C.2     1  LIG1        0.3254
     38 C           5.4700   -1.5435   11.6415 C.3     1  LIG1        0.0788
     39 H           5.1799   -1.2451   12.5289 H       1  LIG1        0.0660
     40 H           6.4274   -1.7529   11.6637 H       1  LIG1        0.0660
     41 H           4.9656   -2.3442   11.3855 H       1  LIG1        0.0660
     42 C           5.5526   -1.0956    4.3154 C.ar    1  LIG1        0.0388
     43 C           9.7877    2.3774    3.1685 C.ar    2  LIG2       -0.0588
     44 H          10.0369    2.0031    4.0056 H       2  LIG2        0.0620
     45 C           1.1825   -0.4756    1.4662 C.2     1  LIG1       -0.0214
     46 H           0.6786   -0.7211    2.2331 H       1  LIG1        0.0620
     47 C          10.4081    3.1591    0.9989 C.ar    2  LIG2       -0.0617
     48 H          11.0748    3.3277    0.3437 H       2  LIG2        0.0618
     49 C           8.1192    3.2074    1.6850 C.ar    2  LIG2       -0.0588
     50 H           7.2117    3.4111    1.4895 H       2  LIG2        0.0620
     51 C           9.0886    3.4500    0.7349 C.ar    2  LIG2       -0.0615
     52 H           8.8459    3.8204   -0.1052 H       2  LIG2        0.0618
     53 C           6.4983   -2.0797    7.6053 C.ar    1  LIG1       -0.0366
     54 H           6.9141   -2.8805    7.3097 H       1  LIG1        0.0637
     55 C           8.9212   -0.8993    5.3904 C.ar    1  LIG1       -0.0366
     56 H           8.7668   -0.0938    5.8716 H       1  LIG1        0.0637
     57 C           8.4497    2.6700    2.9239 C.ar    2  LIG2       -0.0504
     58 C          10.7579    2.6199    2.2205 C.ar    2  LIG2       -0.0615
     59 H          11.6669    2.4153    2.4085 H       2  LIG2        0.0618
     60 C           7.4080    2.4209    3.9677 C.3     2  LIG2       -0.0397
     61 H           6.5287    2.6815    3.6198 H       2  LIG2        0.0278
     62 H           7.6132    2.9506    4.7679 H       2  LIG2        0.0278
     63 H           7.3984    1.4687    4.1997 H       2  LIG2        0.0278
@<TRIPOS>BOND
     1     4    37    2
     2    37     3    1
     3    37    21    1
     4    52    51    1
     5     3    35    1
     6    21    45    1
     7    48    47    1
     8    51    47   ar
     9    51    49   ar
    10    47    58   ar
    11    24    23    1
    12    35    45    2
    13    35    36    1
    14    45    46    1
    15    50    49    1
    16    49    57   ar
    17    23    36   ar
    18    23    15   ar
    19    58    59    1
    20    58    43   ar
    21    33    31    1
    22    36    27   ar
    23    16    15    1
    24    57    43   ar
    25    57    60    1
    26    15    42   ar
    27    32    31    1
    28    31    34    1
    29    31     2    1
    30    43    44    1
    31    14    13    1
    32    61    60    1
    33    27    28    1
    34    27    29   ar
    35    60    63    1
    36    60    62    1
    37    13     9   ar
    38    13    22   ar
    39    10     9    1
    40     2    22    1
    41     9    20   ar
    42    42    29   ar
    43    42     5    1
    44    22    17   ar
    45    29    30    1
    46    20     5    1
    47    20    55   ar
    48    17    18    1
    49    17    55   ar
    50     5    19    1
    51    55    56    1
    52     7     6    1
    53    19     6   ar
    54    19    53   ar
    55     6    11   ar
    56    54    53    1
    57    53    25   ar
    58    11    12    1
    59    11     8   ar
    60    25     8   ar
    61    25    26    1
    62     8     1    1
    63     1    38    1
    64    41    38    1
    65    38    40    1
    66    38    39    1
