@<TRIPOS>MOLECULE
?
 13 14 0 0 0
SMALL
GASTEIGER

@<TRIPOS>ATOM
      1 BR         -0.9958    3.2162    0.3030 Br      1  LIG1       -0.0479
      2 BR          1.1121    4.9724    6.2446 Br      1  LIG1       -0.0479
      3 O           1.5443    1.3205    3.5486 O.2     1  LIG1       -0.2415
      4 N           1.5595    2.2976    4.5165 N.ar    1  LIG1       -0.0478
      5 N           0.7996    1.6744    2.4708 N.ar    1  LIG1       -0.0478
      6 C           0.8054    3.2386    4.0267 C.ar    1  LIG1        0.1492
      7 C           0.3508    2.8677    2.7523 C.ar    1  LIG1        0.1492
      8 C          -0.4500    3.7446    1.9965 C.ar    1  LIG1        0.0487
      9 C          -0.7533    4.9281    2.5356 C.ar    1  LIG1       -0.0444
     10 H          -1.2734    5.5441    2.0331 H       1  LIG1        0.0630
     11 C          -0.3193    5.2924    3.8427 C.ar    1  LIG1       -0.0444
     12 H          -0.5922    6.1286    4.2031 H       1  LIG1        0.0630
     13 C           0.4611    4.4929    4.5772 C.ar    1  LIG1        0.0487
@<TRIPOS>BOND
     1     1     8    1
     2     8     9   ar
     3     8     7   ar
     4    10     9    1
     5     5     7   ar
     6     5     3   ar
     7     9    11   ar
     8     7     6   ar
     9     3     4   ar
    10    11    12    1
    11    11    13   ar
    12     6     4   ar
    13     6    13   ar
    14    13     2    1
