@<TRIPOS>MOLECULE
?
 70 71 0 0 0
SMALL
GASTEIGER

@<TRIPOS>ATOM
      1 C           2.4186   16.1226   23.9359 C.ar    1  LIG1       -0.0054
      2 C           1.3546   15.6883   24.7256 C.ar    1  LIG1       -0.0550
      3 H           1.1502   14.7821   24.7694 H       1  LIG1        0.0621
      4 C           0.6016   16.5967   25.4437 C.ar    1  LIG1       -0.0614
      5 H          -0.1025   16.2985   25.9733 H       1  LIG1        0.0618
      6 C           0.8915   17.9448   25.3782 C.ar    1  LIG1       -0.0617
      7 H           0.3830   18.5557   25.8624 H       1  LIG1        0.0618
      8 C           1.9385   18.3827   24.5939 C.ar    1  LIG1       -0.0614
      9 H           2.1314   19.2906   24.5476 H       1  LIG1        0.0618
     10 C           2.7099   17.4762   23.8681 C.ar    1  LIG1       -0.0550
     11 H           3.4147   17.7771   23.3411 H       1  LIG1        0.0621
     12 C           3.2490   15.1570   23.1273 C.3     1  LIG1        0.1484
     13 H           3.6680   15.6463   22.3880 H       1  LIG1        0.0805
     14 C           4.3408   14.3530   23.8684 C.3     1  LIG1        0.0752
     15 H           5.2235   14.7153   23.6421 H       1  LIG1        0.0544
     16 C           4.2030   14.2490   25.3885 C.3     1  LIG1       -0.0420
     17 H           4.9200   13.7160   25.7383 H       1  LIG1        0.0249
     18 H           3.3631   13.8394   25.6063 H       1  LIG1        0.0249
     19 H           4.2397   15.1278   25.7753 H       1  LIG1        0.0249
     20 C           2.9509   12.9408   22.5533 C.2     1  LIG1        0.4102
     21 C           5.1699   12.0725   23.3329 C.2     1  LIG1        0.2303
     22 C           4.9173   10.6451   22.9179 C.3     1  LIG1        0.0631
     23 H           4.0360   10.5815   22.4963 H       1  LIG1        0.0420
     24 C           5.9827   10.1794   21.9358 C.3     1  LIG1       -0.0514
     25 H           6.8491   10.2576   22.3432 H       1  LIG1        0.0238
     26 H           5.9501   10.7238   21.1472 H       1  LIG1        0.0238
     27 H           5.8217    9.2626   21.6990 H       1  LIG1        0.0238
     28 C           4.9194    9.8215   24.2322 C.3     1  LIG1        0.0868
     29 H           5.8292    9.8087   24.5952 H       1  LIG1        0.0648
     30 C           4.4617    8.3952   24.0099 C.2     1  LIG1       -0.0477
     31 C           2.9781    8.2271   23.8155 C.3     1  LIG1       -0.0414
     32 H           2.7887    7.3191   23.5682 H       1  LIG1        0.0275
     33 H           2.6773    8.8167   23.1194 H       1  LIG1        0.0275
     34 H           2.5225    8.4390   24.6348 H       1  LIG1        0.0275
     35 C           5.3553    7.4107   23.9975 C.2     1  LIG1       -0.0804
     36 H           6.2305    7.6474   24.2044 H       1  LIG1        0.0573
     37 C           5.1149    5.9606   23.6896 C.3     1  LIG1       -0.0109
     38 H           4.1670    5.8129   23.5471 H       1  LIG1        0.0330
     39 H           5.3947    5.4193   24.4447 H       1  LIG1        0.0330
     40 C           5.8856    5.5379   22.4485 C.3     1  LIG1        0.0515
     41 H           5.6921    6.1426   21.7148 H       1  LIG1        0.0563
     42 H           6.8396    5.5660   22.6257 H       1  LIG1        0.0563
     43 C           6.1979    3.7589   20.9334 C.3     1  LIG1        0.0727
     44 H           7.1539    3.8230   21.0812 H       1  LIG1        0.0610
     45 H           5.9704    4.3197   20.1756 H       1  LIG1        0.0610
     46 C           5.8279    2.3413   20.6382 C.ar    1  LIG1       -0.0217
     47 C           6.5693    1.2996   21.1931 C.ar    1  LIG1       -0.0529
     48 H           7.2857    1.4975   21.7518 H       1  LIG1        0.0622
     49 C           6.2624   -0.0102   20.9304 C.ar    1  LIG1       -0.0196
     50 H           6.7751   -0.6928   21.2977 H       1  LIG1        0.0654
     51 C           5.1747   -0.3153   20.1046 C.ar    1  LIG1        0.1201
     52 C           4.4230    0.7000   19.5418 C.ar    1  LIG1       -0.0196
     53 H           3.6951    0.5026   18.9982 H       1  LIG1        0.0654
     54 C           4.7707    2.0156   19.8000 C.ar    1  LIG1       -0.0529
     55 H           4.2818    2.6987   19.4021 H       1  LIG1        0.0622
     56 C           3.8947   -2.0074   19.0272 C.3     1  LIG1        0.0788
     57 H           4.0699   -1.6152   18.1692 H       1  LIG1        0.0660
     58 H           3.0555   -1.6820   19.3625 H       1  LIG1        0.0660
     59 H           3.8560   -2.9631   18.9401 H       1  LIG1        0.0660
     60 N           4.1711   13.0312   23.2292 N.am    1  LIG1       -0.2004
     61 O           2.3609   14.1414   22.5686 O.3     1  LIG1       -0.4400
     62 O           2.4464   11.9882   22.0163 O.2     1  LIG1       -0.2258
     63 O           6.2502   12.4279   23.7973 O.2     1  LIG1       -0.2747
     64 O           4.0638   10.5036   25.1506 O.3     1  LIG1       -0.3868
     65 H           4.3083   10.3491   25.9179 H       1  LIG1        0.2102
     66 O           5.4945    4.2165   22.1029 O.3     1  LIG1       -0.3749
     67 O           4.9316   -1.6547   19.9288 O.3     1  LIG1       -0.4951
     68 O           1.6778   11.8512   25.2629 O.3     2  HOH2       -0.4105
     69 H           1.1638   11.9178   24.5344 H       0  HOH0        0.2052
     70 H           2.2760   11.1581   25.0202 H       0  HOH0        0.2052
@<TRIPOS>BOND
     1    57    56    1
     2    59    56    1
     3    53    52    1
     4    56    58    1
     5    56    67    1
     6    55    54    1
     7    52    54   ar
     8    52    51   ar
     9    54    46   ar
    10    67    51    1
    11    51    49   ar
    12    45    43    1
    13    46    43    1
    14    46    47   ar
    15    49    47   ar
    16    49    50    1
    17    43    44    1
    18    43    66    1
    19    26    24    1
    20    47    48    1
    21    27    24    1
    22    41    40    1
    23    24    25    1
    24    24    22    1
    25    62    20    2
    26    66    40    1
    27    13    12    1
    28    40    42    1
    29    40    37    1
    30    23    22    1
    31    20    61    1
    32    20    60   am
    33    61    12    1
    34    22    21    1
    35    22    28    1
    36    33    31    1
    37    12    14    1
    38    12     1    1
    39    60    21   am
    40    60    14    1
    41    21    63    2
    42    11    10    1
    43    38    37    1
    44    32    31    1
    45    15    14    1
    46    37    35    1
    47    37    39    1
    48    31    30    1
    49    31    34    1
    50    10     1   ar
    51    10     8   ar
    52    14    16    1
    53     1     2   ar
    54    35    30    2
    55    35    36    1
    56    30    28    1
    57    28    29    1
    58    28    64    1
    59    69    68    1
    60     9     8    1
    61     8     6   ar
    62     2     3    1
    63     2     4   ar
    64    70    68    1
    65    64    65    1
    66     6     4   ar
    67     6     7    1
    68    16    18    1
    69    16    17    1
    70    16    19    1
    71     4     5    1
