@<TRIPOS>MOLECULE
?
 104 106 0 0 0
SMALL
GASTEIGER

@<TRIPOS>ATOM
      1 P           5.9199    5.2928   10.0906 P.3     1  LIG1       -0.0592
      2 C           4.5195    6.5347    9.8502 C.3     1  LIG1       -0.0128
      3 C           3.6906    6.5028    8.5628 C.3     1  LIG1       -0.0558
      4 H           2.9895    7.1866    8.6081 H       1  LIG1        0.0238
      5 H           3.2789    5.6186    8.4614 H       1  LIG1        0.0238
      6 H           4.2729    6.6829    7.7949 H       1  LIG1        0.0238
      7 C           5.1038    7.9347   10.0490 C.3     1  LIG1       -0.0558
      8 H           4.3749    8.5845   10.1346 H       1  LIG1        0.0238
      9 H           5.6605    8.1685    9.2777 H       1  LIG1        0.0238
     10 H           5.6509    7.9483   10.8619 H       1  LIG1        0.0238
     11 C           3.5752    6.2686   11.0158 C.3     1  LIG1       -0.0558
     12 H           4.0896    6.2213   11.8484 H       1  LIG1        0.0238
     13 H           3.1086    5.4187   10.8713 H       1  LIG1        0.0238
     14 H           2.9198    6.9947   11.0773 H       1  LIG1        0.0238
     15 C           7.2556    5.6297    8.7698 C.3     1  LIG1       -0.0128
     16 C           7.9509    4.3216    8.4127 C.3     1  LIG1       -0.0558
     17 H           7.3347    3.7518    7.9073 H       1  LIG1        0.0238
     18 H           8.2230    3.8616    9.2340 H       1  LIG1        0.0238
     19 H           8.7419    4.5106    7.8667 H       1  LIG1        0.0238
     20 C           8.2729    6.5249    9.4978 C.3     1  LIG1       -0.0558
     21 H           8.6147    6.0556   10.2875 H       1  LIG1        0.0238
     22 H           7.8356    7.3572    9.7756 H       1  LIG1        0.0238
     23 H           9.0166    6.7325    8.8937 H       1  LIG1        0.0238
     24 C           6.8685    6.3281    7.4584 C.3     1  LIG1       -0.0558
     25 H           7.6665    6.4403    6.9005 H       1  LIG1        0.0238
     26 H           6.4830    7.2062    7.6575 H       1  LIG1        0.0238
     27 H           6.2094    5.7832    6.9801 H       1  LIG1        0.0238
     28 C           5.2202    3.6013    9.7698 C.ar    1  LIG1        0.0269
     29 C           4.8736    3.1185    8.4916 C.ar    1  LIG1        0.1283
     30 O           4.8978    4.0303    7.4799 O.3     1  LIG1       -0.4945
     31 C           4.5862    3.5873    6.1666 C.3     1  LIG1        0.0788
     32 H           5.2172    2.8867    5.9000 H       1  LIG1        0.0660
     33 H           4.6522    4.3412    5.5426 H       1  LIG1        0.0660
     34 H           3.6737    3.2294    6.1497 H       1  LIG1        0.0660
     35 C           4.5472    1.7952    8.2672 C.ar    1  LIG1       -0.0190
     36 H           4.3061    1.4996    7.3969 H       1  LIG1        0.0654
     37 C           4.5767    0.9095    9.3253 C.ar    1  LIG1       -0.0548
     38 H           4.3831   -0.0066    9.1669 H       1  LIG1        0.0622
     39 C           4.8822    1.3211   10.6166 C.ar    1  LIG1       -0.0419
     40 C           4.9473    0.2613   11.6942 C.3     1  LIG1       -0.0391
     41 H           4.1904   -0.3530   11.5940 H       1  LIG1        0.0278
     42 H           4.9072    0.6885   12.5757 H       1  LIG1        0.0278
     43 H           5.7868   -0.2382   11.6111 H       1  LIG1        0.0278
     44 C           5.1860    2.6763   10.8490 C.ar    1  LIG1       -0.0033
     45 C           5.4166    3.0350   12.3021 C.ar    1  LIG1       -0.0095
     46 C           4.2964    3.2050   13.1236 C.ar    1  LIG1       -0.0365
     47 C           2.8682    3.2534   12.6013 C.3     1  LIG1       -0.0209
     48 H           2.9031    3.4250   11.6174 H       1  LIG1        0.0344
     49 C           2.1341    1.9345   12.8253 C.3     1  LIG1       -0.0586
     50 H           2.5687    1.2261   12.3057 H       1  LIG1        0.0235
     51 H           1.2023    2.0267   12.5367 H       1  LIG1        0.0235
     52 H           2.1599    1.7039   13.7776 H       1  LIG1        0.0235
     53 C           2.0610    4.3810   13.2513 C.3     1  LIG1       -0.0586
     54 H           1.8045    4.1170   14.1600 H       1  LIG1        0.0235
     55 H           1.2550    4.5537   12.7209 H       1  LIG1        0.0235
     56 H           2.6072    5.1942   13.2891 H       1  LIG1        0.0235
     57 C           4.4889    3.2944   14.4992 C.ar    1  LIG1       -0.0537
     58 H           3.7299    3.4293   15.0544 H       1  LIG1        0.0624
     59 C           5.7335    3.1965   15.0975 C.ar    1  LIG1       -0.0365
     60 C           5.8272    3.2280   16.6169 C.3     1  LIG1       -0.0209
     61 H           6.7868    3.3665   16.8618 H       1  LIG1        0.0344
     62 C           5.0187    4.3601   17.2360 C.3     1  LIG1       -0.0586
     63 H           5.3034    5.2139   16.8493 H       1  LIG1        0.0235
     64 H           5.1665    4.3759   18.2042 H       1  LIG1        0.0235
     65 H           4.0669    4.2196   17.0523 H       1  LIG1        0.0235
     66 C           5.3879    1.8839   17.1887 C.3     1  LIG1       -0.0586
     67 H           4.4603    1.7065   16.9289 H       1  LIG1        0.0235
     68 H           5.4546    1.9066   18.1667 H       1  LIG1        0.0235
     69 H           5.9669    1.1745   16.8384 H       1  LIG1        0.0235
     70 C           6.8534    3.0245   14.2754 C.ar    1  LIG1       -0.0104
     71 C           8.1821    2.8812   14.9475 C.ar    1  LIG1       -0.0173
     72 C           8.8872    3.9878   15.4028 C.ar    1  LIG1       -0.0538
     73 H           8.5274    4.8570   15.2729 H       1  LIG1        0.0624
     74 C          10.1055    3.8450   16.0429 C.ar    1  LIG1       -0.0580
     75 H          10.5673    4.6192   16.3421 H       1  LIG1        0.0620
     76 C          10.6640    2.5968   16.2561 C.ar    1  LIG1       -0.0473
     77 C          11.9917    2.4468   16.9577 C.3     1  LIG1       -0.0277
     78 H          12.4454    3.3274   16.9742 H       1  LIG1        0.0313
     79 H          12.5594    1.8259   16.4373 H       1  LIG1        0.0313
     80 C          11.8756    1.9268   18.3830 C.3     1  LIG1       -0.0493
     81 H          11.4444    1.0359   18.3649 H       1  LIG1        0.0268
     82 H          12.7850    1.8151   18.7583 H       1  LIG1        0.0268
     83 C          11.0864    2.8314   19.2818 C.3     1  LIG1       -0.0556
     84 H          10.1822    2.9564   18.9003 H       1  LIG1        0.0263
     85 H          11.5261    3.7171   19.3155 H       1  LIG1        0.0263
     86 C          10.9576    2.2899   20.6906 C.3     1  LIG1       -0.0653
     87 H          10.4459    1.4545   20.6734 H       1  LIG1        0.0230
     88 H          10.4950    2.9463   21.2509 H       1  LIG1        0.0230
     89 H          11.8508    2.1196   21.0574 H       1  LIG1        0.0230
     90 C           9.9456    1.4905   15.8379 C.ar    1  LIG1       -0.0580
     91 H          10.2969    0.6213   15.9909 H       1  LIG1        0.0620
     92 C           8.7214    1.6275   15.1984 C.ar    1  LIG1       -0.0538
     93 H           8.2454    0.8514   14.9279 H       1  LIG1        0.0624
     94 C           6.7052    2.9563   12.8729 C.ar    1  LIG1       -0.0288
     95 C           7.8844    2.8105   11.9230 C.3     1  LIG1       -0.0203
     96 H           7.5214    3.0144   11.0133 H       1  LIG1        0.0344
     97 C           8.9994    3.8251   12.1535 C.3     1  LIG1       -0.0586
     98 H           8.6077    4.7059   12.3307 H       1  LIG1        0.0235
     99 H           9.5669    3.8742   11.3552 H       1  LIG1        0.0235
    100 H           9.5400    3.5468   12.9223 H       1  LIG1        0.0235
    101 C           8.4583    1.3984   11.8262 C.3     1  LIG1       -0.0586
    102 H           8.9442    1.1863   12.6507 H       1  LIG1        0.0235
    103 H           9.0711    1.3462   11.0633 H       1  LIG1        0.0235
    104 H           7.7281    0.7568   11.7032 H       1  LIG1        0.0235
@<TRIPOS>BOND
     1    33    31    1
     2    32    31    1
     3    34    31    1
     4    31    30    1
     5    25    24    1
     6    27    24    1
     7    36    35    1
     8    24    26    1
     9    24    15    1
    10    30    29    1
    11     6     3    1
    12    19    16    1
    13    17    16    1
    14    35    29   ar
    15    35    37   ar
    16    16    15    1
    17    16    18    1
    18     5     3    1
    19    29    28   ar
    20     3     4    1
    21     3     2    1
    22    15    20    1
    23    15     1    1
    24    23    20    1
    25    38    37    1
    26     9     7    1
    27    37    39   ar
    28    20    22    1
    29    20    21    1
    30    28     1    1
    31    28    44   ar
    32     2     7    1
    33     2     1    1
    34     2    11    1
    35     7     8    1
    36     7    10    1
    37    39    44   ar
    38    39    40    1
    39    44    45    1
    40    13    11    1
    41    96    95    1
    42    11    14    1
    43    11    12    1
    44   103   101    1
    45    99    97    1
    46    41    40    1
    47    43    40    1
    48    48    47    1
    49    40    42    1
    50   104   101    1
    51   101    95    1
    52   101   102    1
    53    95    97    1
    54    95    94    1
    55    97    98    1
    56    97   100    1
    57    45    94   ar
    58    45    46   ar
    59    50    49    1
    60    51    49    1
    61    47    49    1
    62    47    46    1
    63    47    53    1
    64    55    53    1
    65    49    52    1
    66    94    70   ar
    67    46    57   ar
    68    53    56    1
    69    53    54    1
    70    70    71    1
    71    70    59   ar
    72    57    58    1
    73    57    59   ar
    74    93    92    1
    75    71    92   ar
    76    71    72   ar
    77    59    60    1
    78    92    90   ar
    79    73    72    1
    80    72    74   ar
    81    90    91    1
    82    90    76   ar
    83    74    76   ar
    84    74    75    1
    85    76    77    1
    86    79    77    1
    87    60    61    1
    88    60    66    1
    89    60    62    1
    90    69    66    1
    91    63    62    1
    92    67    66    1
    93    77    78    1
    94    77    80    1
    95    65    62    1
    96    66    68    1
    97    62    64    1
    98    81    80    1
    99    80    82    1
   100    80    83    1
   101    84    83    1
   102    83    85    1
   103    83    86    1
   104    87    86    1
   105    86    89    1
   106    86    88    1
