@<TRIPOS>MOLECULE
?
 38 39 0 0 0
SMALL
GASTEIGER

@<TRIPOS>ATOM
      1 O           0.9951    4.9678    6.5209 O.3     1  LIG1       -0.4612
      2 O          -1.0079    4.0802    6.1886 O.2     1  LIG1       -0.2464
      3 O          -0.4991    4.2799    3.4640 O.3     1  LIG1       -0.3669
      4 H          -0.1792    4.3400    2.7129 H       1  LIG1        0.2120
      5 O           1.1224    5.0983    1.4273 O.3     1  LIG1       -0.3752
      6 C          -0.0499    4.6395    5.7639 C.2     1  LIG1        0.3525
      7 C           0.1945    5.1284    4.3345 C.3     1  LIG1        0.2323
      8 C           1.7438    5.0926    4.2753 C.3     1  LIG1        0.0549
      9 C           2.0203    5.5450    5.7019 C.3     1  LIG1        0.1021
     10 H           2.8950    5.2404    5.9881 H       1  LIG1        0.0704
     11 H           1.9953    6.5126    5.7618 H       1  LIG1        0.0704
     12 C          -0.3180    6.5049    4.2808 C.1     1  LIG1       -0.0589
     13 C          -0.7193    7.5992    4.2607 C.1     1  LIG1       -0.1158
     14 H          -1.0399    8.4720    4.2465 H       1  LIG1        0.1229
     15 C           2.2154    3.6374    4.1106 C.3     1  LIG1       -0.0522
     16 H           1.8820    3.2854    3.2825 H       1  LIG1        0.0237
     17 H           1.8827    3.1088    4.8380 H       1  LIG1        0.0237
     18 H           3.1747    3.6105    4.1077 H       1  LIG1        0.0237
     19 C           2.3709    6.0179    3.2551 C.3     1  LIG1       -0.0168
     20 H           3.2816    6.2028    3.5345 H       1  LIG1        0.0295
     21 H           1.8878    6.8588    3.2716 H       1  LIG1        0.0295
     22 C           2.4068    5.5220    1.8205 C.3     1  LIG1        0.0488
     23 H           2.7082    6.2348    1.2341 H       1  LIG1        0.0560
     24 H           3.0313    4.7841    1.7453 H       1  LIG1        0.0560
     25 C           1.0616    4.6843    0.0588 C.3     1  LIG1        0.0727
     26 H           1.8923    4.2459   -0.1826 H       1  LIG1        0.0610
     27 H           0.9554    5.4631   -0.5112 H       1  LIG1        0.0610
     28 C          -0.0698    3.7545   -0.1607 C.ar    1  LIG1       -0.0219
     29 C          -0.0966    2.5258    0.4484 C.ar    1  LIG1       -0.0564
     30 H           0.5811    2.2839    1.0370 H       1  LIG1        0.0621
     31 C          -1.1212    1.6549    0.1902 C.ar    1  LIG1       -0.0614
     32 H          -1.1372    0.8268    0.6134 H       1  LIG1        0.0618
     33 C          -2.0907    1.9742   -0.6558 C.ar    1  LIG1       -0.0617
     34 H          -2.7818    1.3726   -0.8142 H       1  LIG1        0.0618
     35 C          -2.0804    3.1517   -1.2791 C.ar    1  LIG1       -0.0614
     36 H          -2.7555    3.3596   -1.8841 H       1  LIG1        0.0618
     37 C          -1.0911    4.0488   -1.0377 C.ar    1  LIG1       -0.0564
     38 H          -1.1026    4.8724   -1.4678 H       1  LIG1        0.0621
@<TRIPOS>BOND
     1    36    35    1
     2    38    37    1
     3    35    37   ar
     4    35    33   ar
     5    37    28   ar
     6    34    33    1
     7    33    31   ar
     8    27    25    1
     9    26    25    1
    10    28    25    1
    11    28    29   ar
    12    25     5    1
    13    31    29   ar
    14    31    32    1
    15    29    30    1
    16    23    22    1
    17     5    22    1
    18    24    22    1
    19    22    19    1
    20     4     3    1
    21    19    21    1
    22    19    20    1
    23    19     8    1
    24    16    15    1
    25     3     7    1
    26    18    15    1
    27    15     8    1
    28    15    17    1
    29    14    13    1
    30    13    12    3
    31     8     7    1
    32     8     9    1
    33    12     7    1
    34     7     6    1
    35     9    11    1
    36     9    10    1
    37     9     1    1
    38     6     2    2
    39     6     1    1
