@<TRIPOS>MOLECULE
?
 79 78 0 0 0
SMALL
GASTEIGER

@<TRIPOS>ATOM
      1 F           4.7549    1.2975    5.1008 F       1  LIG1       -0.1039
      2 F           6.7075   -0.9991    4.0088 F       1  LIG1       -0.1039
      3 F           6.7913    0.5117    5.6723 F       1  LIG1       -0.1039
      4 F           5.0258   -0.9046    5.5225 F       1  LIG1       -0.1039
      5 F           6.4207    1.2065    3.5594 F       1  LIG1       -0.1039
      6 F           4.6543   -0.2176    3.4117 F       1  LIG1       -0.1039
      7 P           5.7211    0.1531    4.5431 P.3     1  LIG1        0.6235
      8 F          -5.1313    9.9112    2.3027 F       2  LIG2       -0.1039
      9 F          -4.2187    7.4078    4.0759 F       2  LIG2       -0.1039
     10 F          -6.0823    7.9406    2.8827 F       2  LIG2       -0.1039
     11 F          -3.3146    9.4079    3.5503 F       2  LIG2       -0.1039
     12 F          -5.3647    9.3408    4.4647 F       2  LIG2       -0.1039
     13 F          -4.0246    7.9891    1.9338 F       2  LIG2       -0.1039
     14 P          -4.6930    8.6585    3.2107 P.3     2  LIG2        0.6235
     15 C           1.3387    5.1136    1.2945 C.ar    3  LIG3       -0.0565
     16 H           2.1757    4.7485    1.0343 H       3  LIG3        0.0621
     17 C           1.2783    6.4016    1.8226 C.ar    3  LIG3       -0.0537
     18 H           2.0751    6.9089    1.9270 H       3  LIG3        0.0624
     19 C           0.0541    6.9486    2.1975 C.ar    3  LIG3       -0.0179
     20 C          -1.1152    6.2385    1.9437 C.ar    3  LIG3       -0.0537
     21 H          -1.9595    6.6308    2.1344 H       3  LIG3        0.0624
     22 C          -1.0511    4.9546    1.4104 C.ar    3  LIG3       -0.0565
     23 H          -1.8537    4.4811    1.2275 H       3  LIG3        0.0621
     24 C           0.1734    4.3596    1.1451 C.ar    3  LIG3       -0.0298
     25 C           0.2582    2.8952    0.7973 C.3     3  LIG3        0.0412
     26 H          -0.5603    2.6185    0.3130 H       3  LIG3        0.0517
     27 H           1.0372    2.7354    0.2074 H       3  LIG3        0.0517
     28 C          -0.6673    1.4741    2.5942 C.2     3  LIG3       -0.0065
     29 H          -1.5001    1.4990    2.1382 H       3  LIG3        0.0780
     30 C          -0.5742    0.8106    3.7947 C.2     3  LIG3       -0.0578
     31 H          -1.3362    0.3746    4.1592 H       3  LIG3        0.0594
     32 C           0.6388    0.7780    4.4748 C.3     3  LIG3        0.0370
     33 C           1.7365    1.3994    3.8797 C.2     3  LIG3       -0.0578
     34 H           2.5863    1.3733    4.3048 H       3  LIG3        0.0594
     35 C           1.5905    2.0494    2.6741 C.2     3  LIG3       -0.0065
     36 H           2.3406    2.4758    2.2760 H       3  LIG3        0.0780
     37 C           0.7602    0.1763    5.8402 C.3     3  LIG3        0.0370
     38 C           1.9982   -0.1086    6.3992 C.2     3  LIG3       -0.0578
     39 H           2.7861   -0.0182    5.8749 H       3  LIG3        0.0594
     40 C           2.0890   -0.5203    7.7053 C.2     3  LIG3       -0.0068
     41 H           2.9418   -0.7009    8.0827 H       3  LIG3        0.0780
     42 C          -0.2400   -0.4769    7.9204 C.2     3  LIG3       -0.0068
     43 H          -1.0155   -0.6364    8.4447 H       3  LIG3        0.0780
     44 C          -0.3726   -0.0491    6.6220 C.2     3  LIG3       -0.0578
     45 H          -1.2379    0.0925    6.2562 H       3  LIG3        0.0594
     46 C           1.1056   -0.9560    9.9195 C.3     3  LIG3        0.0323
     47 H           1.9607   -1.4234   10.0986 H       3  LIG3        0.0483
     48 H           0.3643   -1.5434   10.2132 H       3  LIG3        0.0483
     49 C           0.0575    4.2906    4.7569 C.2     4  LIG4       -0.0497
     50 H           0.4580    4.6591    3.9776 H       4  LIG4        0.0625
     51 C           2.4195    3.1671    8.0647 C.3     4  LIG4       -0.0053
     52 H           2.9508    2.9186    8.8118 H       4  LIG4        0.0356
     53 C           3.0453    3.6967    6.9170 C.2     4  LIG4       -0.0374
     54 H           3.9880    3.8155    6.9015 H       4  LIG4        0.0612
     55 C           2.2923    4.0371    5.8299 C.2     4  LIG4        0.1248
     56 C           0.8605    3.9130    5.8505 C.2     4  LIG4        0.0270
     57 C           4.2385    4.5583    4.5456 C.3     4  LIG4        0.1128
     58 H           4.6358    3.7198    4.8896 H       4  LIG4        0.0720
     59 H           4.5815    5.3105    5.0905 H       4  LIG4        0.0720
     60 C           4.6218    4.7519    3.1146 C.3     4  LIG4        0.0818
     61 H           4.1287    5.5235    2.7372 H       4  LIG4        0.0594
     62 H           5.5903    4.9448    3.0502 H       4  LIG4        0.0594
     63 C           5.1954    3.4010    1.2855 C.3     4  LIG4        0.0712
     64 H           6.1262    3.3203    1.6140 H       4  LIG4        0.0583
     65 H           5.1471    4.1828    0.6801 H       4  LIG4        0.0583
     66 C           4.8051    2.1489    0.5397 C.3     4  LIG4        0.0722
     67 H           5.5276    1.8954   -0.0876 H       4  LIG4        0.0583
     68 H           4.6758    1.4056    1.1799 H       4  LIG4        0.0583
     69 C           3.1919    1.2031   -0.8862 C.3     4  LIG4        0.1081
     70 H           3.9698    0.8245   -1.3667 H       4  LIG4        0.0697
     71 H           2.5080    1.4477   -1.5599 H       4  LIG4        0.0697
     72 C           2.6396    0.1901    0.0155 C.1     4  LIG4       -0.0773
     73 C           2.1973   -0.5709    0.7999 C.1     4  LIG4       -0.1169
     74 H           1.8407   -1.1847    1.4311 H       4  LIG4        0.1229
     75 N           0.3996    2.0867    2.0555 N.pl3   3  LIG3       -0.3088
     76 N           0.9793   -0.6706    8.4557 N.pl3   3  LIG3       -0.3116
     77 O           2.7998    4.4973    4.6424 O.2     4  LIG4       -0.4894
     78 O           4.3172    3.5838    2.3760 O.3     4  LIG4       -0.3742
     79 O           3.5980    2.3724   -0.1854 O.3     4  LIG4       -0.3651
@<TRIPOS>BOND
     1    71    69    1
     2    70    69    1
     3    69    79    1
     4    69    72    1
     5    79    66    1
     6    67    66    1
     7    72    73    3
     8    27    25    1
     9    26    25    1
    10    66    68    1
    11    66    63    1
    12    65    63    1
    13    25    24    1
    14    25    75    1
    15    73    74    1
    16    16    15    1
    17    24    15   ar
    18    24    22   ar
    19    23    22    1
    20    63    64    1
    21    63    78    1
    22    15    17   ar
    23    22    20   ar
    24    17    18    1
    25    17    19   ar
    26    13    14    1
    27    20    21    1
    28    20    19   ar
    29    75    28    1
    30    75    35    1
    31    29    28    1
    32    36    35    1
    33     8    14    1
    34    78    60    1
    35    28    30    2
    36    35    33    2
    37    61    60    1
    38    10    14    1
    39    62    60    1
    40    60    57    1
    41    14    11    1
    42    14     9    1
    43    14    12    1
    44     6     7    1
    45     5     7    1
    46    30    31    1
    47    30    32    1
    48    33    34    1
    49    33    32    1
    50    50    49    1
    51     2     7    1
    52    32    37    1
    53     7     1    1
    54     7     4    1
    55     7     3    1
    56    57    77    1
    57    57    58    1
    58    57    59    1
    59    77    55    1
    60    49    56    2
    61    55    56    1
    62    55    53    2
    63    37    38    1
    64    37    44    1
    65    39    38    1
    66    45    44    1
    67    38    40    2
    68    44    42    2
    69    54    53    1
    70    53    51    1
    71    40    41    1
    72    40    76    1
    73    42    43    1
    74    42    76    1
    75    51    52    1
    76    76    46    1
    77    46    47    1
    78    46    48    1
