@<TRIPOS>MOLECULE
cis-N-p-toluenesulfonyl-7-methyl-3-oxo-10-azabicyclo[6.3.0]undec-6-ene
 46 48 0 0 0
SMALL
GASTEIGER

@<TRIPOS>ATOM
      1 S           0.8738    5.8045    4.0830 S.O2    1  LIG1        0.0609
      2 O           1.8036   10.6656   -0.4422 O.2     1  LIG1       -0.2974
      3 O           1.7191    5.3660    5.1527 O.2     1  LIG1       -0.1528
      4 O          -0.5569    5.7551    4.2230 O.2     1  LIG1       -0.1528
      5 N           1.2527    7.3513    3.7814 N.3     1  LIG1       -0.1757
      6 C           0.3616    8.1755    2.9453 C.3     1  LIG1        0.0243
      7 H          -0.1945    8.7504    3.4941 H       1  LIG1        0.0447
      8 H          -0.2087    7.6187    2.3930 H       1  LIG1        0.0447
      9 C           1.3230    9.0010    2.0845 C.3     1  LIG1       -0.0122
     10 H           1.5513    8.4693    1.2935 H       1  LIG1        0.0324
     11 C           0.6893   10.3097    1.6082 C.3     1  LIG1        0.0105
     12 H          -0.1386   10.1133    1.1431 H       1  LIG1        0.0345
     13 H           0.4770   10.8622    2.3768 H       1  LIG1        0.0345
     14 C           1.6125   11.0719    0.6862 C.2     1  LIG1        0.1340
     15 C           2.3093   12.2976    1.1984 C.3     1  LIG1        0.0093
     16 H           1.6557   12.8926    1.5975 H       1  LIG1        0.0345
     17 H           2.7223   12.7632    0.4560 H       1  LIG1        0.0345
     18 C           3.3890   11.9530    2.2454 C.3     1  LIG1       -0.0278
     19 H           3.9547   11.2542    1.8821 H       1  LIG1        0.0311
     20 H           3.9456   12.7354    2.3801 H       1  LIG1        0.0311
     21 C           2.8782   11.5037    3.5751 C.2     1  LIG1       -0.0843
     22 H           2.7953   12.1640    4.2249 H       1  LIG1        0.0572
     23 C           2.5257   10.2671    3.9472 C.2     1  LIG1       -0.0719
     24 C           2.5913    9.1199    2.9601 C.3     1  LIG1       -0.0013
     25 H           3.3642    9.2552    2.3736 H       1  LIG1        0.0362
     26 C           2.6746    7.7202    3.5568 C.3     1  LIG1        0.0273
     27 H           3.1010    7.1046    2.9411 H       1  LIG1        0.0450
     28 H           3.1690    7.7260    4.3915 H       1  LIG1        0.0450
     29 C           1.9742   10.0230    5.3307 C.3     1  LIG1       -0.0435
     30 H           1.9318   10.8548    5.8095 H       1  LIG1        0.0274
     31 H           2.5473    9.4124    5.7998 H       1  LIG1        0.0274
     32 H           1.0932    9.6473    5.2630 H       1  LIG1        0.0274
     33 C           1.2964    4.8560    2.6671 C.ar    1  LIG1        0.1055
     34 C           0.4414    4.7715    1.5816 C.ar    1  LIG1       -0.0351
     35 H          -0.3660    5.2332    1.5910 H       1  LIG1        0.0637
     36 C           0.7840    4.0056    0.4868 C.ar    1  LIG1       -0.0570
     37 H           0.2053    3.9684   -0.2409 H       1  LIG1        0.0621
     38 C           1.9608    3.2969    0.4458 C.ar    1  LIG1       -0.0503
     39 C           2.8136    3.4010    1.5297 C.ar    1  LIG1       -0.0570
     40 H           3.6215    2.9402    1.5166 H       1  LIG1        0.0621
     41 C           2.4974    4.1670    2.6258 C.ar    1  LIG1       -0.0351
     42 H           3.0899    4.2236    3.3405 H       1  LIG1        0.0637
     43 C           2.3087    2.4291   -0.7328 C.3     1  LIG1       -0.0397
     44 H           1.6603    1.7253   -0.8149 H       1  LIG1        0.0278
     45 H           3.1799    2.0471   -0.6031 H       1  LIG1        0.0278
     46 H           2.3068    2.9606   -1.5328 H       1  LIG1        0.0278
@<TRIPOS>BOND
     1    46    43    1
     2    44    43    1
     3    43    45    1
     4    43    38    1
     5     2    14    2
     6    37    36    1
     7    38    36   ar
     8    38    39   ar
     9    17    15    1
    10    36    34   ar
    11    14    15    1
    12    14    11    1
    13    12    11    1
    14    15    16    1
    15    15    18    1
    16    10     9    1
    17    40    39    1
    18    39    41   ar
    19    34    35    1
    20    34    33   ar
    21    11     9    1
    22    11    13    1
    23    19    18    1
    24     9     6    1
    25     9    24    1
    26    18    20    1
    27    18    21    1
    28    25    24    1
    29     8     6    1
    30    41    33   ar
    31    41    42    1
    32    33     1    1
    33    27    26    1
    34     6     7    1
    35     6     5    1
    36    24    26    1
    37    24    23    1
    38    26     5    1
    39    26    28    1
    40    21    23    2
    41    21    22    1
    42     5     1    1
    43    23    29    1
    44     1     4    2
    45     1     3    2
    46    32    29    1
    47    29    31    1
    48    29    30    1
