@<TRIPOS>MOLECULE
?
 48 49 0 0 0
SMALL
GASTEIGER

@<TRIPOS>ATOM
      1 O           2.4189    5.4297   15.8222 O.3     1  LIG1       -0.3497
      2 O           0.2352    4.5512   19.3928 O.co2   1  LIG1       -0.2408
      3 O           2.3124    4.0159   19.8914 O.co2   1  LIG1       -0.2408
      4 O           0.0441    1.9909   17.6697 O.2     1  LIG1       -0.2452
      5 O           0.7769    1.6020   15.6261 O.3     1  LIG1       -0.4646
      6 N           4.5365   16.2315   20.0320 N.4     2  LIG2        0.2239
      7 H           5.1784   16.1817   19.4178 H       2  LIG2        0.2000
      8 H           4.9003   16.3850   20.8287 H       2  LIG2        0.2000
      9 H           3.9803   16.8952   19.8273 H       2  LIG2        0.2000
     10 C           1.7915    4.3180   17.6716 C.2     1  LIG1        0.0888
     11 C           1.4794    3.5448   16.6452 C.2     1  LIG1        0.0848
     12 C           2.3704    4.0378   15.4910 C.3     1  LIG1        0.1186
     13 C           3.7886    3.6487   15.8809 C.2     1  LIG1       -0.0491
     14 H           4.3252    3.0129   15.4651 H       1  LIG1        0.0602
     15 C           4.1032    4.3779   16.9089 C.2     1  LIG1       -0.0491
     16 H           4.9009    4.3666   17.3873 H       1  LIG1        0.0602
     17 C           2.8824    5.2595   17.1643 C.3     1  LIG1        0.1187
     18 C           1.3860    4.2799   19.0978 C.2     1  LIG1        0.3863
     19 C           0.6861    2.3310   16.7260 C.2     1  LIG1        0.3386
     20 C           0.0952    0.3471   15.6643 C.3     1  LIG1        0.0820
     21 H           0.1381   -0.0664   14.7989 H       1  LIG1        0.0661
     22 H          -0.8229    0.4895   15.9064 H       1  LIG1        0.0661
     23 H           0.5120   -0.2240   16.3137 H       1  LIG1        0.0661
     24 C           1.9252    3.8481   14.0701 C.3     1  LIG1       -0.0276
     25 H           2.5129    4.3292   13.4834 H       1  LIG1        0.0264
     26 H           1.0298    4.1785   13.9671 H       1  LIG1        0.0264
     27 H           1.9485    2.9133   13.8505 H       1  LIG1        0.0264
     28 C           3.0867    6.5432   17.8897 C.3     1  LIG1       -0.0276
     29 H           2.2380    6.9647   18.0387 H       1  LIG1        0.0264
     30 H           3.6435    7.1223   17.3640 H       1  LIG1        0.0264
     31 H           3.5111    6.3701   18.7325 H       1  LIG1        0.0264
     32 C           3.2854   14.6326   18.6932 C.3     2  LIG2       -0.0173
     33 H           2.7859   15.3784   18.3527 H       2  LIG2        0.0288
     34 H           2.7185   13.8588   18.7325 H       2  LIG2        0.0288
     35 H           4.0301   14.4547   18.1151 H       2  LIG2        0.0288
     36 C           3.7873   14.9536   20.0692 C.3     2  LIG2       -0.0014
     37 H           3.0073   15.0839   20.6484 H       2  LIG2        0.0900
     38 C           4.6033   13.8404   20.6516 C.ar    2  LIG2       -0.0002
     39 C           5.8538   13.5325   20.1702 C.ar    2  LIG2       -0.0533
     40 H           6.2372   14.0634   19.5112 H       2  LIG2        0.0622
     41 C           6.5417   12.4498   20.6507 C.ar    2  LIG2       -0.0613
     42 H           7.3867   12.2563   20.3132 H       2  LIG2        0.0618
     43 C           6.0120   11.6672   21.6002 C.ar    2  LIG2       -0.0617
     44 H           6.4831   10.9275   21.9087 H       2  LIG2        0.0618
     45 C           4.8019   11.9521   22.1058 C.ar    2  LIG2       -0.0613
     46 H           4.4394   11.4170   22.7743 H       2  LIG2        0.0618
     47 C           4.0862   13.0537   21.6297 C.ar    2  LIG2       -0.0533
     48 H           3.2494   13.2490   21.9851 H       2  LIG2        0.0622
@<TRIPOS>BOND
     1    25    24    1
     2    27    24    1
     3    26    24    1
     4    24    12    1
     5    21    20    1
     6    14    13    1
     7    12     1    1
     8    12    13    1
     9    12    11    1
    10     5    20    1
    11     5    19    1
    12    20    22    1
    13    20    23    1
    14     1    17    1
    15    13    15    2
    16    11    19    1
    17    11    10    2
    18    19     4    2
    19    15    17    1
    20    15    16    1
    21    17    10    1
    22    17    28    1
    23    30    28    1
    24    10    18    1
    25    28    29    1
    26    28    31    1
    27    35    32    1
    28    33    32    1
    29    32    34    1
    30    32    36    1
    31    18     2   ar
    32    18     3   ar
    33     7     6    1
    34    40    39    1
    35     9     6    1
    36     6    36    1
    37     6     8    1
    38    36    37    1
    39    36    38    1
    40    39    41   ar
    41    39    38   ar
    42    42    41    1
    43    41    43   ar
    44    38    47   ar
    45    43    44    1
    46    43    45   ar
    47    47    48    1
    48    47    45   ar
    49    45    46    1
