@<TRIPOS>MOLECULE
C20 H12 Br4 O2
 38 43 0 0 0
SMALL
GASTEIGER

@<TRIPOS>ATOM
      1 BR          5.6274    5.4031   -4.6463 Br      1  LIG1       -0.0491
      2 BR          4.2207    2.3850   -4.1326 Br      1  LIG1       -0.0491
      3 BR         12.4259   -0.2169    6.6338 Br      1  LIG1       -0.0491
      4 BR         12.7248   -2.6649    4.3558 Br      1  LIG1       -0.0491
      5 O           7.8906    1.3359    0.1280 O.3     1  LIG1       -0.3649
      6 O          10.3223    2.2823    1.3155 O.3     1  LIG1       -0.3612
      7 C           6.8189    2.2334    0.4898 C.3     1  LIG1        0.0913
      8 C           7.3675    3.0138    1.6933 C.3     1  LIG1        0.0158
      9 C           8.0222    4.2836    1.3007 C.2     1  LIG1       -0.0771
     10 C           7.8551    4.8477    0.1317 C.2     1  LIG1       -0.0578
     11 C           7.0603    4.2836   -0.9168 C.ar    1  LIG1       -0.0186
     12 C           6.7913    4.9483   -2.0933 C.ar    1  LIG1       -0.0392
     13 C           5.9311    4.4029   -3.0580 C.ar    1  LIG1        0.0324
     14 C           5.3631    3.1618   -2.8612 C.ar    1  LIG1        0.0322
     15 C           5.6229    2.4727   -1.6933 C.ar    1  LIG1       -0.0405
     16 C           6.4508    3.0102   -0.7297 C.ar    1  LIG1       -0.0101
     17 C           8.2824    1.9862    2.3997 C.3     1  LIG1        0.0274
     18 C           8.4805    0.8724    1.3524 C.3     1  LIG1        0.0958
     19 C          10.0435    0.8559    1.1580 C.3     1  LIG1        0.1112
     20 C          10.6371    0.2752    2.3997 C.ar    1  LIG1       -0.0096
     21 C          11.2505   -0.9162    2.6987 C.ar    1  LIG1       -0.0406
     22 C          11.7493   -1.0571    3.9884 C.ar    1  LIG1        0.0322
     23 C          11.6487   -0.0704    4.9150 C.ar    1  LIG1        0.0322
     24 C          10.9717    1.1340    4.6209 C.ar    1  LIG1       -0.0407
     25 C          10.4932    1.2770    3.3509 C.ar    1  LIG1       -0.0117
     26 C           9.7659    2.4052    2.6458 C.3     1  LIG1        0.0908
     27 H           6.0710    1.7175    0.7667 H       1  LIG1        0.0652
     28 H           6.6421    3.2136    2.2729 H       1  LIG1        0.0376
     29 H           8.5780    4.7104    1.9419 H       1  LIG1        0.0576
     30 H           8.3112    5.6611   -0.0480 H       1  LIG1        0.0621
     31 H           7.1885    5.7969   -2.2471 H       1  LIG1        0.0635
     32 H           5.2231    1.6197   -1.5678 H       1  LIG1        0.0633
     33 H           7.8939    1.6513    3.1996 H       1  LIG1        0.0362
     34 H           8.1493    0.0259    1.6293 H       1  LIG1        0.0629
     35 H          10.3385    0.4685    0.3421 H       1  LIG1        0.0673
     36 H          11.3503   -1.5953    2.0428 H       1  LIG1        0.0633
     37 H          10.8644    1.8080    5.2805 H       1  LIG1        0.0633
     38 H           9.8751    3.2660    3.0334 H       1  LIG1        0.0650
@<TRIPOS>BOND
     1     1    13    1
     2     2    14    1
     3    13    14   ar
     4    13    12   ar
     5    14    15   ar
     6    31    12    1
     7    12    11   ar
     8    15    32    1
     9    15    16   ar
    10    11    16   ar
    11    11    10    1
    12    16     7    1
    13    30    10    1
    14     5     7    1
    15     5    18    1
    16    10     9    2
    17    35    19    1
    18     7    27    1
    19     7     8    1
    20    19     6    1
    21    19    18    1
    22    19    20    1
    23     9     8    1
    24     9    29    1
    25     6    26    1
    26    18    34    1
    27    18    17    1
    28     8    28    1
    29     8    17    1
    30    36    21    1
    31    20    21   ar
    32    20    25   ar
    33    17    26    1
    34    17    33    1
    35    26    38    1
    36    26    25    1
    37    21    22   ar
    38    25    24   ar
    39    22     4    1
    40    22    23   ar
    41    24    23   ar
    42    24    37    1
    43    23     3    1
