@<TRIPOS>MOLECULE
?
 62 67 0 0 0
SMALL
GASTEIGER

@<TRIPOS>ATOM
      1 O           3.5361    8.6874    3.2698 O.2     1  LIG1       -0.2745
      2 O           3.6586   13.4313    3.5840 O.2     1  LIG1       -0.2738
      3 O           1.5011    3.8914    3.4229 O.3     1  LIG1       -0.4897
      4 O          -0.1300    3.1265    5.4587 O.3     1  LIG1       -0.4914
      5 N           2.4529    6.6728    3.4352 N.am    1  LIG1       -0.2815
      6 H           2.8717    6.2295    2.8010 H       1  LIG1        0.1549
      7 N           0.7183   13.0861    5.3763 N.3     1  LIG1       -0.2869
      8 N           2.9903   11.6791    4.8860 N.am    1  LIG1       -0.3067
      9 H           3.7810   11.4760    5.2151 H       1  LIG1        0.1493
     10 C           2.6426    7.9939    3.7116 C.2     1  LIG1        0.2285
     11 C           1.5158    8.4488    4.6683 C.3     1  LIG1        0.0813
     12 C           0.9909    7.1139    5.1428 C.ar    1  LIG1       -0.0068
     13 C           0.1478    6.7430    6.1636 C.ar    1  LIG1       -0.0521
     14 H          -0.1851    7.3978    6.7654 H       1  LIG1        0.0622
     15 C          -0.2206    5.4009    6.3180 C.ar    1  LIG1       -0.0159
     16 H          -0.7744    5.1425    7.0439 H       1  LIG1        0.0655
     17 C           0.2219    4.4473    5.4136 C.ar    1  LIG1        0.1634
     18 C           1.0988    4.7950    4.3810 C.ar    1  LIG1        0.1830
     19 C           1.4972    6.1156    4.3006 C.ar    1  LIG1        0.0835
     20 C           2.0366    9.4642    5.7128 C.3     1  LIG1       -0.0115
     21 H           1.5526    9.3557    6.5694 H       1  LIG1        0.0300
     22 H           3.0024    9.3248    5.8769 H       1  LIG1        0.0300
     23 C           1.7897   10.8672    5.1340 C.3     1  LIG1        0.0520
     24 C           0.8953   11.7631    6.0049 C.3     1  LIG1        0.0215
     25 H           0.0123   11.3330    6.1246 H       1  LIG1        0.0448
     26 H           1.3072   11.8741    6.8985 H       1  LIG1        0.0448
     27 C           1.2610   13.0783    3.9948 C.3     1  LIG1        0.0990
     28 C           0.9961   14.4114    3.3174 C.3     1  LIG1       -0.0259
     29 H           0.0292   14.4803    3.1177 H       1  LIG1        0.0288
     30 H           1.4827   14.4332    2.4560 H       1  LIG1        0.0288
     31 C           1.4131   15.6172    4.1467 C.3     1  LIG1       -0.0498
     32 H           2.4019   15.6729    4.1714 H       1  LIG1        0.0266
     33 H           1.0713   16.4431    3.7216 H       1  LIG1        0.0266
     34 C           0.8800   15.5229    5.5626 C.3     1  LIG1       -0.0401
     35 H          -0.1060   15.6209    5.5515 H       1  LIG1        0.0278
     36 H           1.2548   16.2595    6.1073 H       1  LIG1        0.0278
     37 C           1.2498   14.1911    6.1874 C.3     1  LIG1       -0.0001
     38 H           2.2354   14.1147    6.2478 H       1  LIG1        0.0427
     39 H           0.8799   14.1391    7.1042 H       1  LIG1        0.0427
     40 C           2.7746   12.7613    4.1097 C.2     1  LIG1        0.2339
     41 C           0.5404   11.9245    3.2635 C.3     1  LIG1       -0.0206
     42 H          -0.4260   11.9342    3.4751 H       1  LIG1        0.0291
     43 H           0.6500   12.0171    2.2835 H       1  LIG1        0.0291
     44 C           1.1777   10.6204    3.7479 C.3     1  LIG1       -0.0099
     45 H           1.9577   10.4670    3.1399 H       1  LIG1        0.0328
     46 C           0.4456    9.2713    3.8136 C.3     1  LIG1       -0.0119
     47 C          -0.9022    9.3160    4.5300 C.3     1  LIG1       -0.0582
     48 H          -1.4788    9.9812    4.1011 H       1  LIG1        0.0235
     49 H          -0.7651    9.5604    5.4702 H       1  LIG1        0.0235
     50 H          -1.3284    8.4344    4.4807 H       1  LIG1        0.0235
     51 C           0.2080    8.7012    2.4221 C.3     1  LIG1       -0.0582
     52 H          -0.5023    9.2094    1.9779 H       1  LIG1        0.0235
     53 H          -0.0598    7.7617    2.4954 H       1  LIG1        0.0235
     54 H           1.0336    8.7659    1.8978 H       1  LIG1        0.0235
     55 C           2.4862    2.9599    3.8731 C.3     1  LIG1        0.0790
     56 H           2.6677    2.3072    3.1658 H       1  LIG1        0.0660
     57 H           2.1558    2.4941    4.6704 H       1  LIG1        0.0660
     58 H           3.3124    3.4397    4.0950 H       1  LIG1        0.0660
     59 C          -0.9960    2.7183    6.5251 C.3     1  LIG1        0.0790
     60 H          -1.1182    1.7467    6.4930 H       1  LIG1        0.0660
     61 H          -1.8653    3.1603    6.4277 H       1  LIG1        0.0660
     62 H          -0.5968    2.9685    7.3840 H       1  LIG1        0.0660
@<TRIPOS>BOND
     1    54    51    1
     2    52    51    1
     3    43    41    1
     4    51    53    1
     5    51    46    1
     6    30    28    1
     7     6     5    1
     8    29    28    1
     9    45    44    1
    10    56    55    1
    11    41    42    1
    12    41    44    1
    13    41    27    1
    14     1    10    2
    15    28    27    1
    16    28    31    1
    17     3    55    1
    18     3    18    1
    19     5    10   am
    20     5    19    1
    21     2    40    2
    22    10    11    1
    23    33    31    1
    24    44    46    1
    25    44    23    1
    26    46    47    1
    27    46    11    1
    28    55    58    1
    29    55    57    1
    30    27    40    1
    31    27     7    1
    32    48    47    1
    33    40     8   am
    34    31    32    1
    35    31    34    1
    36    19    18   ar
    37    19    12   ar
    38    18    17   ar
    39    50    47    1
    40    47    49    1
    41    11    12    1
    42    11    20    1
    43     8    23    1
    44     8     9    1
    45    23    20    1
    46    23    24    1
    47    12    13   ar
    48     7    24    1
    49     7    37    1
    50    17     4    1
    51    17    15   ar
    52     4    59    1
    53    35    34    1
    54    34    36    1
    55    34    37    1
    56    20    22    1
    57    20    21    1
    58    24    25    1
    59    24    26    1
    60    13    15   ar
    61    13    14    1
    62    37    38    1
    63    37    39    1
    64    15    16    1
    65    61    59    1
    66    60    59    1
    67    59    62    1
