@<TRIPOS>MOLECULE
TMC-1
 98 97 0 0 0
SMALL
GASTEIGER

@<TRIPOS>ATOM
      1 O           5.8871    0.0835    2.5129 O.3     1  HOH1       -0.4105
      2 O           4.7336   12.2089    5.5558 O.3     2  HOH2       -0.4105
      3 O           8.4521    6.1314    3.6672 O.2     3  LIG3       -0.2980
      4 N           2.0515    4.5627    4.2096 N.pl3   4  LIG4       -0.3156
      5 N           8.4108    4.6921   12.1076 N.1     4  LIG4       -0.1945
      6 N           6.5536    0.7293   12.3071 N.1     4  LIG4       -0.1945
      7 N           7.7599    3.5943   -1.6676 N.pl3   5  LIG5       -0.3156
      8 N          11.8351    0.7716    7.0012 N.1     5  LIG5       -0.1945
      9 N          15.2544    0.3377    4.2121 N.1     5  LIG5       -0.1945
     10 C           1.6023    4.6819    5.4661 C.2     4  LIG4       -0.0039
     11 H           0.7079    4.9663    5.6146 H       4  LIG4        0.0783
     12 C           2.4065    4.4010    6.5498 C.2     4  LIG4       -0.0428
     13 C           3.7142    3.9432    6.3228 C.3     4  LIG4        0.0575
     14 C           4.1526    3.8003    4.9968 C.2     4  LIG4       -0.0428
     15 C           3.2953    4.1311    3.9710 C.2     4  LIG4       -0.0039
     16 H           3.5938    4.0503    3.0728 H       4  LIG4        0.0783
     17 C           4.6102    3.6454    7.4893 C.ar    4  LIG4       -0.0258
     18 C           4.4759    2.4391    8.1960 C.ar    4  LIG4       -0.0455
     19 C           5.2528    2.2160    9.3208 C.ar    4  LIG4       -0.0528
     20 H           5.1544    1.3953    9.7880 H       4  LIG4        0.0624
     21 C           6.1781    3.1534    9.7955 C.ar    4  LIG4       -0.0104
     22 C           6.3316    4.3297    9.0459 C.ar    4  LIG4       -0.0528
     23 H           6.9835    4.9663    9.3160 H       4  LIG4        0.0624
     24 C           5.5570    4.5927    7.9194 C.ar    4  LIG4       -0.0455
     25 C           1.1820    4.9768    3.0830 C.3     4  LIG4        0.0047
     26 H           0.2431    4.9381    3.3633 H       4  LIG4        0.0431
     27 H           1.3207    4.3726    2.3239 H       4  LIG4        0.0431
     28 H           1.4063    5.8937    2.8164 H       4  LIG4        0.0431
     29 C           1.8701    4.6340    7.9282 C.3     4  LIG4       -0.0411
     30 H           0.9475    4.9564    7.8681 H       4  LIG4        0.0275
     31 H           2.4219    5.3028    8.3855 H       4  LIG4        0.0275
     32 H           1.8901    3.7944    8.4332 H       4  LIG4        0.0275
     33 C           5.5194    3.2822    4.6578 C.3     4  LIG4       -0.0411
     34 H           5.6650    3.3533    3.6924 H       4  LIG4        0.0275
     35 H           5.5892    2.3439    4.9315 H       4  LIG4        0.0275
     36 H           6.1958    3.8113    5.1312 H       4  LIG4        0.0275
     37 C           3.5034    1.3727    7.7623 C.3     4  LIG4       -0.0394
     38 H           3.5173    0.6362    8.4082 H       4  LIG4        0.0278
     39 H           3.7596    1.0377    6.8786 H       4  LIG4        0.0278
     40 H           2.6011    1.7516    7.7183 H       4  LIG4        0.0278
     41 C           5.7309    5.9060    7.1982 C.3     4  LIG4       -0.0394
     42 H           4.9381    6.4648    7.3416 H       4  LIG4        0.0278
     43 H           5.8446    5.7396    6.2387 H       4  LIG4        0.0278
     44 H           6.5223    6.3673    7.5458 H       4  LIG4        0.0278
     45 C           6.9237    2.9047   11.0208 C.3     4  LIG4        0.2027
     46 C           6.7373    1.7176   11.7368 C.1     4  LIG4        0.0921
     47 C           7.7420    3.8864   11.6140 C.1     4  LIG4        0.0921
     48 C           7.7608    2.3323   -1.2112 C.2     5  LIG5       -0.0039
     49 H           7.1683    1.6964   -1.5954 H       5  LIG5        0.0783
     50 C           8.6036    1.9414   -0.1952 C.2     5  LIG5       -0.0428
     51 C           9.4657    2.8876    0.3749 C.3     5  LIG5        0.0575
     52 C           9.4454    4.2087   -0.1107 C.2     5  LIG5       -0.0428
     53 C           8.5734    4.5279   -1.1372 C.2     5  LIG5       -0.0039
     54 H           8.5481    5.4173   -1.4729 H       5  LIG5        0.0783
     55 C          10.3720    2.4839    1.4887 C.ar    5  LIG5       -0.0258
     56 C           9.8993    2.4692    2.8111 C.ar    5  LIG5       -0.0455
     57 C          10.7321    2.0475    3.8290 C.ar    5  LIG5       -0.0528
     58 H          10.4135    2.0739    4.7227 H       5  LIG5        0.0624
     59 C          12.0295    1.5835    3.5857 C.ar    5  LIG5       -0.0104
     60 C          12.4832    1.6152    2.2579 C.ar    5  LIG5       -0.0528
     61 H          13.3658    1.3204    2.0652 H       5  LIG5        0.0624
     62 C          11.6850    2.0615    1.2185 C.ar    5  LIG5       -0.0455
     63 C           8.5498    0.5166    0.2810 C.3     5  LIG5       -0.0411
     64 H           8.0551   -0.0254   -0.3676 H       5  LIG5        0.0275
     65 H           8.0980    0.4792    1.1506 H       5  LIG5        0.0275
     66 H           9.4617    0.1682    0.3699 H       5  LIG5        0.0275
     67 C          10.3302    5.2778    0.4593 C.3     5  LIG5       -0.0411
     68 H          10.1870    6.1143   -0.0295 H       5  LIG5        0.0275
     69 H          11.2674    5.0059    0.3745 H       5  LIG5        0.0275
     70 H          10.1132    5.4116    1.4048 H       5  LIG5        0.0275
     71 C           6.8322    3.9650   -2.7560 C.3     5  LIG5        0.0047
     72 H           6.8030    3.2444   -3.4200 H       5  LIG5        0.0431
     73 H           7.1441    4.7896   -3.1840 H       5  LIG5        0.0431
     74 H           5.9352    4.1068   -2.3874 H       5  LIG5        0.0431
     75 C           8.4819    2.8746    3.1348 C.3     5  LIG5       -0.0394
     76 H           7.8648    2.1785    2.8277 H       5  LIG5        0.0278
     77 H           8.2722    3.7194    2.6847 H       5  LIG5        0.0278
     78 H           8.3881    2.9886    4.1031 H       5  LIG5        0.0278
     79 C          12.2104    2.0506   -0.1915 C.3     5  LIG5       -0.0394
     80 H          13.1869    1.9622   -0.1770 H       5  LIG5        0.0278
     81 H          11.9654    2.8882   -0.6377 H       5  LIG5        0.0278
     82 H          11.8215    1.2949   -0.6786 H       5  LIG5        0.0278
     83 C          12.8603    1.0828    4.6696 C.3     5  LIG5        0.2027
     84 C          12.3162    0.9121    5.9616 C.1     5  LIG5        0.0921
     85 C          14.1756    0.6738    4.4358 C.1     5  LIG5        0.0921
     86 C           7.1904    7.9398    4.5198 C.3     3  LIG3       -0.0063
     87 H           7.7129    7.7895    5.3354 H       3  LIG3        0.0306
     88 H           6.2348    7.9252    4.7386 H       3  LIG3        0.0306
     89 H           7.4245    8.8116    4.1372 H       3  LIG3        0.0306
     90 C           7.4890    6.8757    3.5385 C.2     3  LIG3        0.1273
     91 C           6.6111    6.7602    2.3312 C.3     3  LIG3       -0.0063
     92 H           6.9109    6.0082    1.7792 H       3  LIG3        0.0306
     93 H           6.6607    7.5887    1.8110 H       3  LIG3        0.0306
     94 H           5.6842    6.6076    2.6144 H       3  LIG3        0.0306
     95 H           5.2682    0.2460    3.1227 H       0  HOH0        0.2052
     96 H           5.7538    0.7493    1.9290 H       0  HOH0        0.2052
     97 H           4.4865   13.0060    4.9383 H       0  HOH0        0.2052
     98 H           5.3259   12.5494    6.2432 H       0  HOH0        0.2052
@<TRIPOS>BOND
     1    72    71    1
     2    73    71    1
     3    71    74    1
     4    71     7    1
     5     7    48    1
     6     7    53    1
     7    49    48    1
     8    54    53    1
     9    48    50    2
    10    53    52    2
    11    82    79    1
    12    81    79    1
    13    64    63    1
    14    50    63    1
    15    50    51    1
    16    79    80    1
    17    79    62    1
    18    52    51    1
    19    52    67    1
    20    68    67    1
    21    63    66    1
    22    63    65    1
    23    69    67    1
    24    51    55    1
    25    67    70    1
    26    62    55   ar
    27    62    60   ar
    28    55    56   ar
    29    92    91    1
    30    93    91    1
    31    96     1    1
    32    61    60    1
    33    60    59   ar
    34    27    25    1
    35    91    94    1
    36    91    90    1
    37     1    95    1
    38    77    75    1
    39    56    75    1
    40    56    57   ar
    41    28    25    1
    42    76    75    1
    43    16    15    1
    44    25    26    1
    45    25     4    1
    46    75    78    1
    47    90     3    2
    48    90    86    1
    49    59    57   ar
    50    59    83    1
    51    34    33    1
    52    57    58    1
    53    15     4    1
    54    15    14    2
    55    89    86    1
    56     4    10    1
    57     9    85    3
    58    85    83    1
    59    86    88    1
    60    86    87    1
    61    33    35    1
    62    33    14    1
    63    33    36    1
    64    83    84    1
    65    97     2    1
    66    14    13    1
    67    10    11    1
    68    10    12    2
    69     2    98    1
    70    84     8    3
    71    43    41    1
    72    13    12    1
    73    13    17    1
    74    12    29    1
    75    39    37    1
    76    41    42    1
    77    41    44    1
    78    41    24    1
    79    17    24   ar
    80    17    18   ar
    81    40    37    1
    82    37    18    1
    83    37    38    1
    84    30    29    1
    85    24    22   ar
    86    29    31    1
    87    29    32    1
    88    18    19   ar
    89    22    23    1
    90    22    21   ar
    91    19    20    1
    92    19    21   ar
    93    21    45    1
    94    45    47    1
    95    45    46    1
    96    47     5    3
    97    46     6    3
