@<TRIPOS>MOLECULE
?
 79 84 0 0 0
SMALL
GASTEIGER

@<TRIPOS>ATOM
      1 P           4.2869    3.5436   19.1933 P.3     1  LIG1        0.1346
      2 P           5.4080    1.6659   19.5874 P.3     1  LIG1        0.1349
      3 P           7.2815    2.6370   20.3139 P.3     1  LIG1        0.0349
      4 P           6.1935    4.0285   21.6900 P.3     1  LIG1        0.0349
      5 P           5.5234    5.2160   19.9316 P.3     1  LIG1        0.1349
      6 C           2.7213    3.3810   20.0639 C.ar    1  LIG1        0.1070
      7 C           2.6589    2.5984   21.2161 C.ar    1  LIG1       -0.0188
      8 C           1.4815    2.5299   21.9437 C.ar    1  LIG1       -0.0580
      9 C           0.3665    3.2363   21.5202 C.ar    1  LIG1       -0.0615
     10 C           0.4224    4.0036   20.3720 C.ar    1  LIG1       -0.0580
     11 C           1.6003    4.0940   19.6434 C.ar    1  LIG1       -0.0188
     12 C           4.0401    3.8086   17.4324 C.ar    1  LIG1        0.1070
     13 C           2.9508    3.2478   16.7793 C.ar    1  LIG1       -0.0188
     14 C           2.8259    3.3980   15.4036 C.ar    1  LIG1       -0.0580
     15 C           3.7847    4.0738   14.6902 C.ar    1  LIG1       -0.0615
     16 C           4.8767    4.6050   15.3303 C.ar    1  LIG1       -0.0580
     17 C           5.0222    4.4772   16.6983 C.ar    1  LIG1       -0.0188
     18 C           5.7630    1.1365   17.8730 C.ar    1  LIG1        0.0200
     19 C           4.7745    0.3496   17.2798 C.ar    1  LIG1       -0.0505
     20 C           4.9518   -0.1586   16.0074 C.ar    1  LIG1       -0.0610
     21 C           6.1300    0.1003   15.3226 C.ar    1  LIG1       -0.0617
     22 C           7.1080    0.8730   15.8989 C.ar    1  LIG1       -0.0610
     23 C           6.9329    1.4079   17.1700 C.ar    1  LIG1       -0.0505
     24 C           7.7444    1.2684   21.4578 C.ar    1  LIG1       -0.0107
     25 C           7.6531    1.3105   22.8420 C.ar    1  LIG1       -0.0534
     26 C           8.1188    0.2542   23.6091 C.ar    1  LIG1       -0.0611
     27 C           8.6845   -0.8461   22.9995 C.ar    1  LIG1       -0.0617
     28 C           8.7637   -0.9102   21.6356 C.ar    1  LIG1       -0.0611
     29 C           8.2991    0.1397   20.8553 C.ar    1  LIG1       -0.0534
     30 C           7.6348    5.0477   22.2161 C.ar    1  LIG1       -0.0107
     31 C           8.3304    5.9134   21.3733 C.ar    1  LIG1       -0.0534
     32 C           9.4292    6.6125   21.8483 C.ar    1  LIG1       -0.0611
     33 C           9.8572    6.4270   23.1533 C.ar    1  LIG1       -0.0617
     34 C           9.1873    5.5654   23.9875 C.ar    1  LIG1       -0.0611
     35 C           8.0584    4.8908   23.5341 C.ar    1  LIG1       -0.0534
     36 C           4.2199    6.3034   20.6065 C.ar    1  LIG1        0.0200
     37 C           3.3877    6.9392   19.6833 C.ar    1  LIG1       -0.0505
     38 C           2.4185    7.8303   20.1234 C.ar    1  LIG1       -0.0610
     39 C           2.2898    8.1195   21.4520 C.ar    1  LIG1       -0.0617
     40 C           3.1219    7.5134   22.3675 C.ar    1  LIG1       -0.0610
     41 C           4.0785    6.5968   21.9544 C.ar    1  LIG1       -0.0505
     42 H           3.4467    2.0889   21.4963 H       1  LIG1        0.0657
     43 H           1.4392    1.9769   22.6750 H       1  LIG1        0.0619
     44 H          -0.4329    3.1901   22.0295 H       1  LIG1        0.0618
     45 H          -0.3041    4.4719   20.1052 H       1  LIG1        0.0619
     46 H           1.6324    4.6590   18.8464 H       1  LIG1        0.0657
     47 H           2.3088    2.7941   17.2809 H       1  LIG1        0.0657
     48 H           2.1022    3.0080   14.9917 H       1  LIG1        0.0619
     49 H           3.6763    4.1777   13.7810 H       1  LIG1        0.0618
     50 H           5.5319    5.0634   14.8434 H       1  LIG1        0.0619
     51 H           5.7923    4.8295   17.1145 H       1  LIG1        0.0657
     52 H           4.0193    0.1654   17.7218 H       1  LIG1        0.0625
     53 H           4.2182   -0.6467   15.6331 H       1  LIG1        0.0618
     54 H           6.2155   -0.2540   14.4445 H       1  LIG1        0.0618
     55 H           7.9142    1.0611   15.4547 H       1  LIG1        0.0618
     56 H           7.6092    1.9251   17.5454 H       1  LIG1        0.0625
     57 H           7.3083    2.0120   23.3024 H       1  LIG1        0.0624
     58 H           8.0119    0.3292   24.5472 H       1  LIG1        0.0618
     59 H           9.0087   -1.5591   23.4607 H       1  LIG1        0.0618
     60 H           9.1617   -1.6277   21.1916 H       1  LIG1        0.0618
     61 H           8.3633    0.0785   19.9308 H       1  LIG1        0.0624
     62 H           8.0534    6.0343   20.4780 H       1  LIG1        0.0624
     63 H           9.9125    7.2024   21.2377 H       1  LIG1        0.0618
     64 H          10.6413    6.8933   23.4587 H       1  LIG1        0.0618
     65 H           9.4954    5.4261   24.8318 H       1  LIG1        0.0618
     66 H           7.5611    4.2997   24.1503 H       1  LIG1        0.0624
     67 H           3.5104    6.7947   18.8023 H       1  LIG1        0.0625
     68 H           1.8295    8.1850   19.4938 H       1  LIG1        0.0618
     69 H           1.6447    8.7683   21.7629 H       1  LIG1        0.0618
     70 H           3.1019    7.6820   23.2523 H       1  LIG1        0.0618
     71 H           4.6638    6.1797   22.6229 H       1  LIG1        0.0625
     72 S           0.5633   11.2184    3.0198 S.3     2  LIG2        0.2092
     73 O           0.2127   12.6086    2.9432 O.2     2  LIG2       -0.1362
     74 O           1.6513   10.8962    3.8924 O.3     2  LIG2       -0.0397
     75 O           0.5629   10.5314    1.7624 O.2     2  LIG2       -0.1362
     76 C          -0.8733   10.4938    3.8731 C.3     2  LIG2        0.5487
     77 F          -0.7568    9.1809    4.0148 F       2  LIG2       -0.1486
     78 F          -2.0084   10.6904    3.1984 F       2  LIG2       -0.1486
     79 F          -1.0376   10.9930    5.0884 F       2  LIG2       -0.1486
@<TRIPOS>BOND
     1    75    72    2
     2    73    72    2
     3    72    76    1
     4    72    74    1
     5    78    76    1
     6    76    77    1
     7    76    79    1
     8    49    15    1
     9    54    21    1
    10    15    16   ar
    11    15    14   ar
    12    50    16    1
    13    48    14    1
    14    21    22   ar
    15    21    20   ar
    16    16    17   ar
    17    14    13   ar
    18    55    22    1
    19    53    20    1
    20    22    23   ar
    21    20    19   ar
    22    17    51    1
    23    17    12   ar
    24    13    47    1
    25    13    12   ar
    26    23    56    1
    27    23    18   ar
    28    19    52    1
    29    19    18   ar
    30    12     1    1
    31    18     2    1
    32    67    37    1
    33    46    11    1
    34     1     2    1
    35     1     5    1
    36     1     6    1
    37    68    38    1
    38     2     3    1
    39    11     6   ar
    40    11    10   ar
    41    37    38   ar
    42    37    36   ar
    43    61    29    1
    44     5    36    1
    45     5     4    1
    46     6     7   ar
    47    45    10    1
    48    38    39   ar
    49     3    24    1
    50     3     4    1
    51    10     9   ar
    52    62    31    1
    53    36    41   ar
    54    29    24   ar
    55    29    28   ar
    56    60    28    1
    57     7    42    1
    58     7     8   ar
    59    63    32    1
    60    31    32   ar
    61    31    30   ar
    62    39    69    1
    63    39    40   ar
    64    24    25   ar
    65     9     8   ar
    66     9    44    1
    67    28    27   ar
    68     4    30    1
    69    32    33   ar
    70     8    43    1
    71    41    40   ar
    72    41    71    1
    73    30    35   ar
    74    40    70    1
    75    25    57    1
    76    25    26   ar
    77    27    59    1
    78    27    26   ar
    79    33    64    1
    80    33    34   ar
    81    35    34   ar
    82    35    66    1
    83    26    58    1
    84    34    65    1
