@<TRIPOS>MOLECULE
C8 H4 Br F6 N O2 S
 23 22 0 0 0
SMALL
GASTEIGER

@<TRIPOS>ATOM
      1 BR          6.1960    6.7827    5.0736 Br      1  LIG1        0.0580
      2 S           7.7286    5.5485    7.1586 S.O2    1  LIG1        0.1537
      3 F           0.0751    5.7789    7.6643 F       2  LIG2       -0.1659
      4 F           0.0791    4.1328    6.3078 F       2  LIG2       -0.1659
      5 F          -0.5293    6.0624    5.6376 F       2  LIG2       -0.1659
      6 F          10.1879    4.7542    6.8296 F       1  LIG1       -0.1492
      7 F           9.4973    6.1398    5.3249 F       1  LIG1       -0.1492
      8 F           9.9985    6.8496    7.2988 F       1  LIG1       -0.1492
      9 O           7.3558    4.3457    6.4642 O.2     1  LIG1       -0.1475
     10 O           7.8174    5.5456    8.5918 O.2     1  LIG1       -0.1475
     11 N           6.9164    6.8756    6.7707 N.3     1  LIG1       -0.0070
     12 C           4.3679    6.3115    5.4768 C.ar    2  LIG2       -0.0179
     13 C           4.1156    5.2758    6.3560 C.ar    2  LIG2       -0.0535
     14 C           2.7876    5.0080    6.6465 C.ar    2  LIG2       -0.0495
     15 C           1.7729    5.7425    6.0397 C.ar    2  LIG2        0.0548
     16 C           2.0664    6.7634    5.1461 C.ar    2  LIG2       -0.0495
     17 C           3.3878    7.0656    4.8566 C.ar    2  LIG2       -0.0535
     18 C           0.3492    5.4314    6.4079 C.3     2  LIG2        0.4174
     19 C           9.4624    5.8439    6.6170 C.3     1  LIG1        0.5379
     20 H           4.8196    4.7698    6.7439 H       2  LIG2        0.0624
     21 H           2.5690    4.3189    7.2630 H       2  LIG2        0.0623
     22 H           1.3651    7.2527    4.7333 H       2  LIG2        0.0623
     23 H           3.6122    7.7646    4.2543 H       2  LIG2        0.0624
@<TRIPOS>BOND
     1    23    17    1
     2    22    16    1
     3    17    16   ar
     4    17    12   ar
     5     1    11    1
     6    16    15   ar
     7     7    19    1
     8    12    13   ar
     9     5    18    1
    10    15    18    1
    11    15    14   ar
    12     4    18    1
    13    13    14   ar
    14    13    20    1
    15    18     3    1
    16     9     2    2
    17    19     6    1
    18    19     2    1
    19    19     8    1
    20    14    21    1
    21    11     2    1
    22     2    10    2
