@<TRIPOS>MOLECULE
Ethynylbenzene, polymorph beta at 0.76 GPa
 42 42 0 0 0
SMALL
GASTEIGER

@<TRIPOS>ATOM
      1 C           0.5815    2.7607   -1.2857 C.ar    1  LIG1        0.0247
      2 C           0.3601    2.7313   -2.6404 C.ar    1  LIG1       -0.0463
      3 H          -0.3815    2.2784   -2.9702 H       1  LIG1        0.0630
      4 C           1.2219    3.3622   -3.5272 C.ar    1  LIG1       -0.0606
      5 H           1.0081    3.4550   -4.4275 H       1  LIG1        0.0618
      6 C           2.4293    3.8652   -3.0139 C.ar    1  LIG1       -0.0617
      7 H           3.0540    4.2355   -3.5945 H       1  LIG1        0.0618
      8 C           2.7024    3.8198   -1.6795 C.ar    1  LIG1       -0.0606
      9 H           3.4825    4.2143   -1.3631 H       1  LIG1        0.0618
     10 C           1.8521    3.2034   -0.7943 C.ar    1  LIG1       -0.0463
     11 H           2.0934    3.0782    0.0959 H       1  LIG1        0.0630
     12 C          -0.3397    2.1680   -0.4123 C.1     1  LIG1       -0.0697
     13 C          -1.0585    1.6245    0.3467 C.1     1  LIG1       -0.1139
     14 H          -1.6265    1.1954    0.9458 H       1  LIG1        0.1232
     15 C           3.6270    1.5914    4.1684 C.ar    2  LIG2        0.0247
     16 C           2.5676    2.3246    3.7813 C.ar    2  LIG2       -0.0463
     17 H           2.4862    3.1830    4.1313 H       2  LIG2        0.0630
     18 C           1.5854    1.8957    2.8945 C.ar    2  LIG2       -0.0606
     19 H           0.8738    2.4452    2.6589 H       2  LIG2        0.0618
     20 C           1.7109    0.6551    2.3930 C.ar    2  LIG2       -0.0617
     21 H           1.0749    0.3622    1.7771 H       2  LIG2        0.0618
     22 C           2.7903   -0.2628    2.7683 C.ar    2  LIG2       -0.0606
     23 H           2.8557   -1.1357    2.4586 H       2  LIG2        0.0618
     24 C           3.7037    0.3135    3.6282 C.ar    2  LIG2       -0.0463
     25 H           4.4372   -0.2033    3.8688 H       2  LIG2        0.0630
     26 C           4.6179    2.0537    5.0956 C.1     2  LIG2       -0.0697
     27 C           5.4050    2.4215    5.8394 C.1     2  LIG2       -0.1139
     28 H           6.0451    2.7195    6.4436 H       2  LIG2        0.1232
     29 C           0.5895    3.2468   -7.4634 C.ar    3  LIG3        0.0247
     30 C           0.7776    2.0130   -7.1302 C.ar    3  LIG3       -0.0463
     31 H           1.5517    1.6052   -7.4465 H       3  LIG3        0.0630
     32 C          -0.0616    1.2390   -6.3460 C.ar    3  LIG3       -0.0606
     33 H           0.1043    0.3620   -6.0834 H       3  LIG3        0.0618
     34 C          -1.3357    2.0822   -5.9690 C.ar    3  LIG3       -0.0617
     35 H          -2.0212    1.6586   -5.5045 H       3  LIG3        0.0618
     36 C          -1.4654    3.1578   -6.2315 C.ar    3  LIG3       -0.0606
     37 H          -2.1978    3.6121   -5.8832 H       3  LIG3        0.0618
     38 C          -0.5985    3.8496   -7.0393 C.ar    3  LIG3       -0.0463
     39 H          -0.8014    4.7175   -7.3052 H       3  LIG3        0.0630
     40 C           1.4072    4.0418   -8.3283 C.1     3  LIG3       -0.0697
     41 C           2.1722    4.6028   -9.0132 C.1     3  LIG3       -0.1139
     42 H           2.7804    5.0489   -9.5568 H       3  LIG3        0.1232
@<TRIPOS>BOND
     1    42    41    1
     2    41    40    3
     3    40    29    1
     4    29    30   ar
     5    29    38   ar
     6    31    30    1
     7    39    38    1
     8    30    32   ar
     9    38    36   ar
    10    32    33    1
    11    32    34   ar
    12    36    34   ar
    13    36    37    1
    14    34    35    1
    15     5     4    1
    16     7     6    1
    17     4     6   ar
    18     4     2   ar
    19     6     8   ar
    20     3     2    1
    21     2     1   ar
    22     8     9    1
    23     8    10   ar
    24     1    10   ar
    25     1    12    1
    26    10    11    1
    27    12    13    3
    28    13    14    1
    29    21    20    1
    30    20    22   ar
    31    20    18   ar
    32    23    22    1
    33    19    18    1
    34    22    24   ar
    35    18    16   ar
    36    24    25    1
    37    24    15   ar
    38    16    17    1
    39    16    15   ar
    40    15    26    1
    41    26    27    3
    42    27    28    1
