@<TRIPOS>MOLECULE
?
 69 71 0 0 0
SMALL
GASTEIGER

@<TRIPOS>ATOM
      1 B           1.4738    4.4714    3.8049 B       1  LIG1        0.0000
      2 BR          1.9850    2.8022    4.8247 Br      1  LIG1        0.0000
      3 BR          0.0537    5.3787    4.9062 Br      1  LIG1        0.0000
      4 BR          3.1198    5.6565    3.7528 Br      1  LIG1        0.0000
      5 N           0.3919    5.1353    1.4502 N.pl3   1  LIG1        0.0000
      6 N           0.9571    3.0658    1.5838 N.pl3   1  LIG1        0.0000
      7 C           0.9457    4.2139    2.2922 C.3     1  LIG1        0.0000
      8 C           0.0647    4.5506    0.2584 C.2     1  LIG1        0.0000
      9 H          -0.3285    4.9743   -0.4718 H       1  LIG1        0.0000
     10 C           0.4113    3.2674    0.3295 C.2     1  LIG1        0.0000
     11 H           0.3057    2.6278   -0.3368 H       1  LIG1        0.0000
     12 C           1.4193    1.7386    1.9351 C.ar    1  LIG1        0.0000
     13 C           2.7921    1.4475    1.7899 C.ar    1  LIG1        0.0000
     14 C           3.1438    0.1267    2.0295 C.ar    1  LIG1        0.0000
     15 H           4.0338   -0.1228    1.9308 H       1  LIG1        0.0000
     16 C           2.2324   -0.8238    2.4055 C.ar    1  LIG1        0.0000
     17 H           2.5123   -1.6951    2.5710 H       1  LIG1        0.0000
     18 C           0.9222   -0.4990    2.5376 C.ar    1  LIG1        0.0000
     19 H           0.3158   -1.1565    2.7873 H       1  LIG1        0.0000
     20 C           0.4626    0.7921    2.3082 C.ar    1  LIG1        0.0000
     21 C          -1.0109    1.1089    2.4795 C.3     1  LIG1        0.0000
     22 H          -1.1425    2.0456    2.2298 H       1  LIG1        0.0000
     23 C          -1.4647    0.9505    3.9065 C.3     1  LIG1        0.0000
     24 H          -0.9352    1.5129    4.4756 H       1  LIG1        0.0000
     25 H          -1.3611    0.0337    4.1751 H       1  LIG1        0.0000
     26 H          -2.3883    1.2020    3.9777 H       1  LIG1        0.0000
     27 C          -1.8597    0.2634    1.5475 C.3     1  LIG1        0.0000
     28 H          -1.5718    0.3960    0.6417 H       1  LIG1        0.0000
     29 H          -2.7809    0.5208    1.6332 H       1  LIG1        0.0000
     30 H          -1.7646   -0.6634    1.7798 H       1  LIG1        0.0000
     31 C           3.8090    2.4911    1.4111 C.3     1  LIG1        0.0000
     32 H           3.3831    3.3704    1.5025 H       1  LIG1        0.0000
     33 C           5.0203    2.4614    2.3401 C.3     1  LIG1        0.0000
     34 H           4.7337    2.6000    3.2445 H       1  LIG1        0.0000
     35 H           5.6334    3.1565    2.0875 H       1  LIG1        0.0000
     36 H           5.4554    1.6079    2.2705 H       1  LIG1        0.0000
     37 C           4.2314    2.3307   -0.0218 C.3     1  LIG1        0.0000
     38 H           3.4590    2.3723   -0.5894 H       1  LIG1        0.0000
     39 H           4.6651    1.4812   -0.1336 H       1  LIG1        0.0000
     40 H           4.8409    3.0337   -0.2555 H       1  LIG1        0.0000
     41 C           0.1964    6.5763    1.6288 C.ar    1  LIG1        0.0000
     42 C           1.2068    7.4338    1.1759 C.ar    1  LIG1        0.0000
     43 C           0.9686    8.7982    1.3051 C.ar    1  LIG1        0.0000
     44 H           1.6245    9.4041    1.0467 H       1  LIG1        0.0000
     45 C          -0.2096    9.2596    1.8045 C.ar    1  LIG1        0.0000
     46 H          -0.3386   10.1764    1.8945 H       1  LIG1        0.0000
     47 C          -1.2048    8.4041    2.1761 C.ar    1  LIG1        0.0000
     48 H          -2.0072    8.7506    2.4926 H       1  LIG1        0.0000
     49 C          -1.0491    7.0179    2.0904 C.ar    1  LIG1        0.0000
     50 C          -2.1969    6.0971    2.3735 C.3     1  LIG1        0.0000
     51 H          -1.8285    5.2120    2.5782 H       1  LIG1        0.0000
     52 C          -3.0725    6.5268    3.5596 C.3     1  LIG1        0.0000
     53 H          -2.5288    6.6060    4.3464 H       1  LIG1        0.0000
     54 H          -3.7557    5.8694    3.7076 H       1  LIG1        0.0000
     55 H          -3.4815    7.3744    3.3650 H       1  LIG1        0.0000
     56 C          -3.0742    5.9605    1.1309 C.3     1  LIG1        0.0000
     57 H          -2.5331    5.6872    0.3862 H       1  LIG1        0.0000
     58 H          -3.4860    6.8061    0.9349 H       1  LIG1        0.0000
     59 H          -3.7545    5.3031    1.2906 H       1  LIG1        0.0000
     60 C           2.4548    6.9407    0.4834 C.3     1  LIG1        0.0000
     61 H           2.6157    6.0199    0.7781 H       1  LIG1        0.0000
     62 C           2.2618    6.9169   -1.0496 C.3     1  LIG1        0.0000
     63 H           1.4838    6.3981   -1.2659 H       1  LIG1        0.0000
     64 H           3.0345    6.5229   -1.4633 H       1  LIG1        0.0000
     65 H           2.1482    7.8140   -1.3733 H       1  LIG1        0.0000
     66 C           3.7006    7.7486    0.7984 C.3     1  LIG1        0.0000
     67 H           3.8354    7.7724    1.7493 H       1  LIG1        0.0000
     68 H           3.5931    8.6437    0.4689 H       1  LIG1        0.0000
     69 H           4.4604    7.3427    0.3774 H       1  LIG1        0.0000
@<TRIPOS>BOND
     1    64    62    1
     2    65    62    1
     3    63    62    1
     4    62    60    1
     5    38    37    1
     6     9     8    1
     7    11    10    1
     8    40    37    1
     9    39    37    1
    10    37    31    1
    11     8    10    2
    12     8     5    1
    13    10     6    1
    14    69    66    1
    15    57    56    1
    16    68    66    1
    17    60    61    1
    18    60    66    1
    19    60    42    1
    20    28    27    1
    21    66    67    1
    22    58    56    1
    23    44    43    1
    24    56    59    1
    25    56    50    1
    26    42    43   ar
    27    42    41   ar
    28    43    45   ar
    29    31    32    1
    30    31    13    1
    31    31    33    1
    32     5    41    1
    33     5     7    1
    34    27    29    1
    35    27    30    1
    36    27    21    1
    37     6    12    1
    38     6     7    1
    39    41    49   ar
    40    13    12   ar
    41    13    14   ar
    42    45    46    1
    43    45    47   ar
    44    15    14    1
    45    12    20   ar
    46    14    16   ar
    47    35    33    1
    48    49    47   ar
    49    49    50    1
    50    47    48    1
    51    22    21    1
    52    36    33    1
    53     7     1    1
    54    20    21    1
    55    20    18   ar
    56    33    34    1
    57    50    51    1
    58    50    52    1
    59    16    18   ar
    60    16    17    1
    61    21    23    1
    62    18    19    1
    63    55    52    1
    64    52    54    1
    65    52    53    1
    66     4     1    1
    67     1     2    1
    68     1     3    1
    69    23    26    1
    70    23    25    1
    71    23    24    1
