@<TRIPOS>MOLECULE
?
 51 55 0 0 0
SMALL
GASTEIGER

@<TRIPOS>ATOM
      1 N           2.9767    5.9015    3.9607 N.pl3   1  LIG1       -0.3192
      2 C           3.6602    5.0224    2.9970 C.3     1  LIG1        0.0491
      3 H           3.1690    5.0626    2.1266 H       1  LIG1        0.0550
      4 C           3.4955    3.6144    3.5869 C.3     1  LIG1       -0.0285
      5 H           3.4229    2.9331    2.8720 H       1  LIG1        0.0287
      6 H           4.2537    3.3837    4.1800 H       1  LIG1        0.0287
      7 C           2.1934    3.7313    4.3735 C.3     1  LIG1       -0.0318
      8 H           2.1247    3.0210    5.0595 H       1  LIG1        0.0284
      9 H           1.4075    3.6796    3.7742 H       1  LIG1        0.0284
     10 C           2.3070    5.1142    5.0184 C.3     1  LIG1        0.0310
     11 H           1.3953    5.4848    5.1954 H       1  LIG1        0.0506
     12 C           2.5031    7.1374    3.5298 C.ar    1  LIG1        0.0304
     13 C           1.6741    7.9415    4.3385 C.ar    1  LIG1       -0.0406
     14 H           1.4254    7.6354    5.2023 H       1  LIG1        0.0636
     15 C           1.2165    9.1704    3.8949 C.ar    1  LIG1       -0.0600
     16 H           0.6643    9.6956    4.4621 H       1  LIG1        0.0618
     17 C           1.5497    9.6475    2.6381 C.ar    1  LIG1       -0.0616
     18 H           1.2170   10.4830    2.3303 H       1  LIG1        0.0618
     19 C           2.3779    8.8784    1.8425 C.ar    1  LIG1       -0.0600
     20 H           2.6206    9.1966    0.9806 H       1  LIG1        0.0618
     21 C           2.8622    7.6522    2.2729 C.ar    1  LIG1       -0.0406
     22 H           3.4442    7.1537    1.7103 H       1  LIG1        0.0636
     23 C           5.1125    5.3992    2.7509 C.ar    1  LIG1       -0.0271
     24 C           5.8592    6.1022    3.6862 C.ar    1  LIG1       -0.0568
     25 H           5.4520    6.3898    4.4952 H       1  LIG1        0.0621
     26 C           7.2020    6.3892    3.4474 C.ar    1  LIG1       -0.0614
     27 H           7.7040    6.8727    4.0929 H       1  LIG1        0.0618
     28 C           7.8074    5.9738    2.2762 C.ar    1  LIG1       -0.0617
     29 H           8.7236    6.1695    2.1161 H       1  LIG1        0.0618
     30 C           7.0721    5.2712    1.3365 C.ar    1  LIG1       -0.0614
     31 H           7.4836    4.9796    0.5312 H       1  LIG1        0.0618
     32 C           5.7285    4.9930    1.5748 C.ar    1  LIG1       -0.0568
     33 H           5.2266    4.5178    0.9231 H       1  LIG1        0.0621
     34 C           3.1347    5.0922    6.3297 C.3     1  LIG1        0.0033
     35 H           3.9993    4.6119    6.1811 H       1  LIG1        0.0367
     36 C           2.3622    4.4359    7.4661 C.ar    1  LIG1       -0.0393
     37 C           2.1370    3.0857    7.7221 C.ar    1  LIG1       -0.0580
     38 H           2.5235    2.4192    7.1669 H       1  LIG1        0.0620
     39 C           1.3386    2.7269    8.8034 C.ar    1  LIG1       -0.0615
     40 H           1.1749    1.8076    8.9817 H       1  LIG1        0.0618
     41 C           0.7787    3.6935    9.6247 C.ar    1  LIG1       -0.0615
     42 H           0.2242    3.4345   10.3506 H       1  LIG1        0.0618
     43 C           1.0262    5.0382    9.3882 C.ar    1  LIG1       -0.0583
     44 H           0.6529    5.7014    9.9570 H       1  LIG1        0.0620
     45 C           1.8248    5.4062    8.3133 C.ar    1  LIG1       -0.0438
     46 C           2.2565    6.7896    7.8846 C.3     1  LIG1       -0.0268
     47 H           2.5718    7.3209    8.6578 H       1  LIG1        0.0313
     48 H           1.5164    7.2738    7.4403 H       1  LIG1        0.0313
     49 C           3.4056    6.5049    6.8996 C.3     1  LIG1       -0.0405
     50 H           4.2785    6.5297    7.3672 H       1  LIG1        0.0275
     51 H           3.4155    7.1773    6.1724 H       1  LIG1        0.0275
@<TRIPOS>BOND
     1    31    30    1
     2    33    32    1
     3    20    19    1
     4    30    32   ar
     5    30    28   ar
     6    32    23   ar
     7    22    21    1
     8    19    21   ar
     9    19    17   ar
    10    29    28    1
    11     3     2    1
    12    21    12   ar
    13    28    26   ar
    14    18    17    1
    15    17    15   ar
    16    23     2    1
    17    23    24   ar
    18     5     4    1
    19     2     4    1
    20     2     1    1
    21    26    24   ar
    22    26    27    1
    23    12     1    1
    24    12    13   ar
    25     4     6    1
    26     4     7    1
    27    24    25    1
    28     9     7    1
    29    15    13   ar
    30    15    16    1
    31     1    10    1
    32    13    14    1
    33     7    10    1
    34     7     8    1
    35    10    11    1
    36    10    34    1
    37    51    49    1
    38    35    34    1
    39    34    49    1
    40    34    36    1
    41    49    50    1
    42    49    46    1
    43    38    37    1
    44    48    46    1
    45    36    37   ar
    46    36    45   ar
    47    37    39   ar
    48    46    45    1
    49    46    47    1
    50    45    43   ar
    51    39    40    1
    52    39    41   ar
    53    43    41   ar
    54    43    44    1
    55    41    42    1
