@<TRIPOS>MOLECULE
?
 29 31 0 0 0
SMALL
GASTEIGER

@<TRIPOS>ATOM
      1 S           1.0259   11.6009    5.3019 S.2     1  LIG1       -0.0879
      2 F           1.5549   12.7201    7.7094 F       1  LIG1       -0.2016
      3 F           1.6162   13.0439   10.3398 F       1  LIG1       -0.1993
      4 F           0.8973   11.0228   12.0125 F       1  LIG1       -0.1993
      5 F           0.0424    8.6506   10.9532 F       1  LIG1       -0.1993
      6 F          -0.0798    8.3081    8.3348 F       1  LIG1       -0.2016
      7 F          -0.5427    9.3808    1.6880 F       1  LIG1       -0.2016
      8 F          -0.1929   10.1635   -0.8195 F       1  LIG1       -0.1993
      9 F           1.3996   12.2959   -1.4093 F       1  LIG1       -0.1993
     10 F           2.6015   13.6667    0.6192 F       1  LIG1       -0.1993
     11 F           2.2997   12.8853    3.1492 F       1  LIG1       -0.2016
     12 C           1.1549   11.6854    8.4765 C.ar    1  LIG1        0.1724
     13 C           1.2080   11.8714    9.8364 C.ar    1  LIG1        0.1970
     14 C           0.8405   10.8506   10.6818 C.ar    1  LIG1        0.1991
     15 C           0.4104    9.6574   10.1451 C.ar    1  LIG1        0.1970
     16 C           0.3595    9.4957    8.7752 C.ar    1  LIG1        0.1724
     17 C           0.7306   10.5008    7.8706 C.ar    1  LIG1        0.0649
     18 C           0.6877   10.3101    6.4141 C.ar    1  LIG1        0.0256
     19 C           0.3901    9.1584    5.7162 C.ar    1  LIG1       -0.0462
     20 H           0.1805    8.3346    6.1393 H       1  LIG1        0.0629
     21 C           0.4257    9.3149    4.3237 C.ar    1  LIG1       -0.0462
     22 H           0.2358    8.6103    3.7148 H       1  LIG1        0.0629
     23 C           0.7619   10.5861    3.9236 C.ar    1  LIG1        0.0256
     24 C           0.8987   11.0698    2.5435 C.ar    1  LIG1        0.0649
     25 C           0.2758   10.4287    1.4679 C.ar    1  LIG1        0.1724
     26 C           0.4424   10.8184    0.1620 C.ar    1  LIG1        0.1970
     27 C           1.2437   11.9005   -0.1379 C.ar    1  LIG1        0.1991
     28 C           1.8549   12.5881    0.8882 C.ar    1  LIG1        0.1970
     29 C           1.6737   12.1781    2.1870 C.ar    1  LIG1        0.1724
@<TRIPOS>BOND
     1     9    27    1
     2     8    26    1
     3    27    26   ar
     4    27    28   ar
     5    26    25   ar
     6    10    28    1
     7    28    29   ar
     8    25     7    1
     9    25    24   ar
    10    29    24   ar
    11    29    11    1
    12    24    23    1
    13    22    21    1
    14    23    21   ar
    15    23     1   ar
    16    21    19   ar
    17     1    18   ar
    18    19    20    1
    19    19    18   ar
    20    18    17    1
    21     2    12    1
    22    17    12   ar
    23    17    16   ar
    24     6    16    1
    25    12    13   ar
    26    16    15   ar
    27    13     3    1
    28    13    14   ar
    29    15    14   ar
    30    15     5    1
    31    14     4    1
