@<TRIPOS>MOLECULE
?
 19 19 0 0 0
SMALL
GASTEIGER

@<TRIPOS>ATOM
      1 F           4.6325    8.1698    6.8857 F       1  LIG1       -0.1676
      2 F           3.1945    9.3765    7.9383 F       1  LIG1       -0.1676
      3 O           4.8483   11.6065    7.8030 O.3     1  LIG1       -0.3785
      4 C           2.6516   11.8739    4.2743 C.ar    1  LIG1       -0.0614
      5 F           5.1495    9.0632    8.7728 F       1  LIG1       -0.1676
      6 C           4.6892   10.0303    4.4833 C.ar    1  LIG1       -0.0558
      7 C           3.2911   11.6896    5.4931 C.ar    1  LIG1       -0.0558
      8 C           4.0536   10.2344    3.2723 C.ar    1  LIG1       -0.0614
      9 C           4.3104   10.7570    5.6053 C.ar    1  LIG1       -0.0106
     10 C           3.0295   11.1510    3.1726 C.ar    1  LIG1       -0.0617
     11 C           4.5017    9.2744    7.6171 C.3     1  LIG1        0.4195
     12 C           5.0148   10.5094    6.9157 C.3     1  LIG1        0.1750
     13 H           5.4136    9.4020    4.5823 H       1  LIG1        0.0621
     14 H           2.5823   11.2823    2.3369 H       1  LIG1        0.0618
     15 H           2.0014   12.5202    4.2216 H       1  LIG1        0.0618
     16 H           4.3250    9.7043    2.4893 H       1  LIG1        0.0618
     17 H           5.5698   11.7265    8.2248 H       1  LIG1        0.2106
     18 H           5.9652   10.3469    6.7347 H       1  LIG1        0.0734
     19 H           3.0802   12.2273    6.2554 H       1  LIG1        0.0621
@<TRIPOS>BOND
     1    14    10    1
     2    16     8    1
     3    10     8   ar
     4    10     4   ar
     5     8     6   ar
     6    15     4    1
     7     4     7   ar
     8     6    13    1
     9     6     9   ar
    10     7     9   ar
    11     7    19    1
    12     9    12    1
    13    18    12    1
    14     1    11    1
    15    12    11    1
    16    12     3    1
    17    11     2    1
    18    11     5    1
    19     3    17    1
