@<TRIPOS>MOLECULE
9,10-bis(4-pyridylethynyl)anthracene
 28 28 0 0 0
SMALL
GASTEIGER

@<TRIPOS>ATOM
      1 N           5.3035   -5.2246    1.8021 N.2     1  LIG1       -0.1577
      2 N           5.3035   11.3441    1.8021 N.2     1  LIG1       -0.1577
      3 C           4.2387   -4.5179    2.1538 C.2     1  LIG1        0.0511
      4 H           3.4635   -4.9967    2.4249 H       1  LIG1        0.0848
      5 C           4.1702   -3.1365    2.1567 C.2     1  LIG1       -0.0253
      6 H           3.3665   -2.6913    2.3960 H       1  LIG1        0.0646
      7 C           5.3035   -2.4140    1.8021 C.2     1  LIG1        0.0418
      8 C           5.3035   -0.9759    1.8021 C.1     1  LIG1       -0.0640
      9 C           5.3035    0.2035    1.8021 C.1     1  LIG1       -0.0817
     10 C           5.3035    1.6370    1.8021 C.3     1  LIG1        0.1017
     11 C           4.1022    2.3395    2.0696 C.ar    1  LIG1       -0.0211
     12 C           2.8778    1.6644    2.3420 C.ar    1  LIG1       -0.0567
     13 H           2.8613    0.7142    2.3427 H       1  LIG1        0.0621
     14 C           1.7322    2.3512    2.6008 C.ar    1  LIG1       -0.0614
     15 H           0.9266    1.8789    2.7745 H       1  LIG1        0.0618
     16 C           1.7334    3.7707    2.6123 C.ar    1  LIG1       -0.0614
     17 H           0.9298    4.2442    2.7932 H       1  LIG1        0.0618
     18 C           2.8855    4.4561    2.3650 C.ar    1  LIG1       -0.0567
     19 H           2.8760    5.4065    2.3845 H       1  LIG1        0.0621
     20 C           4.1038    3.7735    2.0782 C.ar    1  LIG1       -0.0211
     21 C           5.3035    4.4726    1.8021 C.3     1  LIG1        0.1017
     22 C           5.3035    5.9484    1.8021 C.1     1  LIG1       -0.0817
     23 C           5.3035    7.0237    1.8021 C.1     1  LIG1       -0.0640
     24 C           5.3035    8.5327    1.8021 C.2     1  LIG1        0.0418
     25 C           6.0409    9.2550    2.7384 C.2     1  LIG1       -0.0253
     26 H           6.5598    8.8071    3.3958 H       1  LIG1        0.0646
     27 C           6.0020   10.6402    2.6909 C.2     1  LIG1        0.0511
     28 H           6.5086   11.1198    3.3360 H       1  LIG1        0.0848
@<TRIPOS>BOND
     1    24    23    1
     2    24    25    2
     3    23    22    3
     4    22    21    1
     5    21    20    1
     6    10     9    1
     7    10    11    1
     8     9     8    3
     9     8     7    1
    10     1     3    2
    11     2    27    2
    12     7     5    2
    13    11    20   ar
    14    11    12   ar
    15    20    18   ar
    16     3     5    1
    17     3     4    1
    18     5     6    1
    19    12    13    1
    20    12    14   ar
    21    18    19    1
    22    18    16   ar
    23    14    16   ar
    24    14    15    1
    25    16    17    1
    26    27    25    1
    27    27    28    1
    28    25    26    1
