@<TRIPOS>MOLECULE
C33 H30 Cl N O5
 70 74 0 0 0
SMALL
GASTEIGER

@<TRIPOS>ATOM
      1 CL          3.5756    9.3976   13.7819 Cl      1  LIG1       -0.0835
      2 O           3.3367    6.5038    7.9954 O.3     1  LIG1       -0.2664
      3 O           4.2107    3.2442   11.6853 O.3     1  LIG1       -0.4672
      4 O           8.8471   10.3172    7.4222 O.3     1  LIG1       -0.4614
      5 O           2.0532    3.8722   11.5724 O.2     1  LIG1       -0.2498
      6 O          10.2627    8.6317    7.8498 O.2     1  LIG1       -0.2450
      7 N           4.5239    5.7351    8.2387 N.4     1  LIG1       -0.2435
      8 C           5.5393    7.9246    7.7277 C.ar    1  LIG1       -0.0355
      9 C           2.7574    7.8677   11.7090 C.ar    1  LIG1       -0.0431
     10 C           7.9260    8.1909    7.7720 C.ar    1  LIG1        0.0591
     11 C           2.1048    4.0924    8.7554 C.3     1  LIG1       -0.0075
     12 C           5.6602    6.5899    8.1026 C.ar    1  LIG1        0.0653
     13 C           8.0553    6.8493    8.1350 C.ar    1  LIG1       -0.0458
     14 C           3.7839    8.1286   12.5965 C.ar    1  LIG1        0.0410
     15 C           6.6625    8.7099    7.5505 C.ar    1  LIG1       -0.0458
     16 C           3.4294    3.8418    9.5531 C.3     1  LIG1        0.1234
     17 C           2.5554    0.9588   10.1304 C.ar    1  LIG1       -0.0537
     18 C           4.1320    2.5897    8.9889 C.ar    1  LIG1       -0.0202
     19 C           4.3880    5.1000    9.5842 C.3     1  LIG1        0.1022
     20 C           6.9356    6.0522    8.3098 C.ar    1  LIG1       -0.0355
     21 C           5.5394    0.3405    7.9924 C.ar    1  LIG1       -0.0540
     22 C           2.9206    6.8798   10.7580 C.ar    1  LIG1       -0.0551
     23 C           5.1893    2.7219    8.1158 C.ar    1  LIG1       -0.0568
     24 C           2.2370   -0.3380   10.4957 C.ar    1  LIG1       -0.0612
     25 C           3.6905    1.2468    9.3243 C.ar    1  LIG1       -0.0136
     26 C           9.1446    9.0337    7.6822 C.2     1  LIG1        0.3392
     27 C           2.3476    4.4053    7.3037 C.2     1  LIG1       -0.0474
     28 C           2.5707    5.8462    6.9612 C.3     1  LIG1        0.0966
     29 C           3.1088    3.6492   11.0323 C.2     1  LIG1        0.3202
     30 C           5.9021    1.5871    7.6187 C.ar    1  LIG1       -0.0609
     31 C           4.1073    6.1445   10.6634 C.ar    1  LIG1       -0.0212
     32 C           5.1128    6.4173   11.5892 C.ar    1  LIG1       -0.0551
     33 C           4.0927   -1.1837    9.2548 C.ar    1  LIG1       -0.0540
     34 C           2.3911    3.4604    6.3647 C.2     1  LIG1       -0.0972
     35 C           9.9620   11.2654    7.3493 C.3     1  LIG1        0.0900
     36 C           4.9656    7.4186   12.5534 C.ar    1  LIG1       -0.0431
     37 C           4.4499    0.1210    8.8524 C.ar    1  LIG1       -0.0176
     38 C           4.0760    3.0799   13.1163 C.3     1  LIG1        0.0817
     39 C           3.0172   -1.4212   10.0717 C.ar    1  LIG1       -0.0612
     40 C           9.3896   12.6355    7.5696 C.3     1  LIG1       -0.0306
     41 H           1.6650    6.4363    7.0319 H       1  LIG1        0.0633
     42 H           3.0041    5.9513    6.0569 H       1  LIG1        0.0633
     43 H           1.5563    3.2232    8.7829 H       1  LIG1        0.0325
     44 H           1.5730    4.8831    9.1914 H       1  LIG1        0.0325
     45 H           5.3490    4.6783    9.7399 H       1  LIG1        0.0613
     46 H           2.3224    2.4139    6.6965 H       1  LIG1        0.0535
     47 H           2.6109    3.7158    5.4688 H       1  LIG1        0.0535
     48 H           5.4290    3.7195    7.7972 H       1  LIG1        0.0621
     49 H           6.6112    1.8057    6.9672 H       1  LIG1        0.0618
     50 H           5.9994   -0.4913    7.8008 H       1  LIG1        0.0624
     51 H           4.5504   -2.1287    8.9291 H       1  LIG1        0.0624
     52 H           2.8196   -2.3360   10.3771 H       1  LIG1        0.0618
     53 H           1.4830   -0.3833   11.0538 H       1  LIG1        0.0618
     54 H           1.9378    1.6499   10.4538 H       1  LIG1        0.0624
     55 H           3.9788    3.9897   13.4385 H       1  LIG1        0.0661
     56 H           4.9259    2.6414   13.3379 H       1  LIG1        0.0661
     57 H           3.4792    2.3863   13.2948 H       1  LIG1        0.0661
     58 H           2.3313    6.8560    9.9783 H       1  LIG1        0.0621
     59 H           2.0544    8.4921   11.7413 H       1  LIG1        0.0632
     60 H           5.6534    7.6125   13.1798 H       1  LIG1        0.0632
     61 H           6.0524    5.9500   11.5066 H       1  LIG1        0.0621
     62 H           4.6716    8.2270    7.5684 H       1  LIG1        0.0639
     63 H           6.6730    9.7701    7.3361 H       1  LIG1        0.0626
     64 H           9.0019    6.4878    8.5590 H       1  LIG1        0.0626
     65 H           7.0452    5.0515    8.5769 H       1  LIG1        0.0639
     66 H          10.5626   10.9488    7.9242 H       1  LIG1        0.0695
     67 H          10.3089   11.0556    6.5456 H       1  LIG1        0.0695
     68 H           8.8022   12.8249    6.8594 H       1  LIG1        0.0262
     69 H           8.9009   12.6803    8.4715 H       1  LIG1        0.0262
     70 H          10.1767   13.2898    7.5265 H       1  LIG1        0.0262
@<TRIPOS>BOND
     1    47    34    1
     2    42    28    1
     3    34    46    1
     4    34    27    2
     5    67    35    1
     6    68    40    1
     7    28    41    1
     8    28    27    1
     9    28     2    1
    10    49    30    1
    11    27    11    1
    12    63    15    1
    13    35     4    1
    14    35    40    1
    15    35    66    1
    16     4    26    1
    17    70    40    1
    18    15     8   ar
    19    15    10   ar
    20    62     8    1
    21    40    69    1
    22    30    21   ar
    23    30    23   ar
    24    26    10    1
    25    26     6    2
    26     8    12   ar
    27    10    13   ar
    28    48    23    1
    29    50    21    1
    30    21    37   ar
    31     2     7    1
    32    12     7    1
    33    12    20   ar
    34    23    18   ar
    35    13    20   ar
    36    13    64    1
    37     7    19    1
    38    20    65    1
    39    11    43    1
    40    11    44    1
    41    11    16    1
    42    37    33   ar
    43    37    25   ar
    44    51    33    1
    45    18    25   ar
    46    18    16    1
    47    33    39   ar
    48    25    17   ar
    49    16    19    1
    50    16    29    1
    51    19    45    1
    52    19    31    1
    53    58    22    1
    54    39    52    1
    55    39    24   ar
    56    17    54    1
    57    17    24   ar
    58    24    53    1
    59    31    22   ar
    60    31    32   ar
    61    22     9   ar
    62    29     5    2
    63    29     3    1
    64    61    32    1
    65    32    36   ar
    66     3    38    1
    67     9    59    1
    68     9    14   ar
    69    36    14   ar
    70    36    60    1
    71    14     1    1
    72    38    57    1
    73    38    56    1
    74    38    55    1
