@<TRIPOS>MOLECULE
?
 61 62 0 0 0
SMALL
GASTEIGER

@<TRIPOS>ATOM
      1 O           3.1817    2.1341   14.4787 O.3     1  LIG1       -0.3541
      2 O           2.6378    0.9046   18.4882 O.3     1  LIG1       -0.3910
      3 H           2.8331    0.7437   19.2892 H       1  LIG1        0.2098
      4 O           4.8037    2.2000   16.0657 O.3     1  LIG1       -0.3474
      5 O           9.1125    8.2113   15.0409 O.3     1  LIG1       -0.3910
      6 H           9.6900    8.4482   14.4801 H       1  LIG1        0.2098
      7 O           6.9237    8.8908   18.5438 O.3     1  LIG1       -0.3541
      8 O           7.6921    6.8280   17.9213 O.3     1  LIG1       -0.3474
      9 C           3.1549    3.5160   14.1266 C.3     1  LIG1        0.0394
     10 H           3.9952    3.9396   14.4021 H       1  LIG1        0.0525
     11 H           2.4051    3.9546   14.5795 H       1  LIG1        0.0525
     12 H           3.0471    3.6039   13.1564 H       1  LIG1        0.0525
     13 C           3.4243    1.9174   15.8365 C.3     1  LIG1        0.1640
     14 H           2.8561    2.5299   16.3866 H       1  LIG1        0.0913
     15 C           3.1035    0.4716   16.1756 C.3     1  LIG1        0.0336
     16 H           3.6456   -0.1146   15.5737 H       1  LIG1        0.0372
     17 C           1.6298    0.1622   15.9333 C.3     1  LIG1       -0.0554
     18 H           1.4015    0.3671   15.0025 H       1  LIG1        0.0235
     19 H           1.0789    0.7069   16.5328 H       1  LIG1        0.0235
     20 H           1.4625   -0.7874   16.1078 H       1  LIG1        0.0235
     21 C           3.5259    0.1860   17.6283 C.3     1  LIG1        0.0673
     22 H           3.4308   -0.7928   17.8077 H       1  LIG1        0.0601
     23 C           4.9778    0.6061   17.9038 C.3     1  LIG1        0.0090
     24 H           5.1042    0.5854   18.8954 H       1  LIG1        0.0348
     25 C           5.9877   -0.3719   17.3055 C.3     1  LIG1       -0.0577
     26 H           6.8822   -0.1706   17.6517 H       1  LIG1        0.0234
     27 H           5.9881   -0.2838   16.3300 H       1  LIG1        0.0234
     28 H           5.7407   -1.2882   17.5523 H       1  LIG1        0.0234
     29 C           5.1640    2.0661   17.4595 C.3     1  LIG1        0.0666
     30 H           4.5533    2.6432   18.0026 H       1  LIG1        0.0600
     31 C           6.5777    2.6023   17.5940 C.3     1  LIG1       -0.0261
     32 H           7.1755    2.0906   16.9928 H       1  LIG1        0.0290
     33 H           6.8894    2.4617   18.5231 H       1  LIG1        0.0290
     34 C           6.6817    4.0898   17.2533 C.3     1  LIG1       -0.0484
     35 H           6.1498    4.6123   17.9051 H       1  LIG1        0.0267
     36 H           6.3020    4.2466   16.3534 H       1  LIG1        0.0267
     37 C           8.1331    4.5722   17.2813 C.3     1  LIG1       -0.0261
     38 H           8.4938    4.4527   18.1956 H       1  LIG1        0.0290
     39 H           8.6706    4.0105   16.6692 H       1  LIG1        0.0290
     40 C           8.2861    6.0281   16.8770 C.3     1  LIG1        0.0666
     41 H           7.7558    6.1720   16.0415 H       1  LIG1        0.0600
     42 C           9.7304    6.4703   16.5991 C.3     1  LIG1        0.0090
     43 H          10.0173    6.0110   15.7589 H       1  LIG1        0.0348
     44 C          10.7458    6.0984   17.6736 C.3     1  LIG1       -0.0577
     45 H          10.7236    5.1295   17.8233 H       1  LIG1        0.0234
     46 H          10.5247    6.5637   18.5075 H       1  LIG1        0.0234
     47 H          11.6432    6.3631   17.3808 H       1  LIG1        0.0234
     48 C           9.7439    7.9803   16.3068 C.3     1  LIG1        0.0673
     49 H          10.6911    8.2981   16.2638 H       1  LIG1        0.0601
     50 C           8.9900    8.7885   17.3722 C.3     1  LIG1        0.0336
     51 H           9.4743    8.6897   18.2424 H       1  LIG1        0.0372
     52 C           8.9520   10.2770   17.0094 C.3     1  LIG1       -0.0554
     53 H           8.4129   10.7598   17.6693 H       1  LIG1        0.0235
     54 H           8.5548   10.3859   16.1195 H       1  LIG1        0.0235
     55 H           9.8636   10.6356   17.0065 H       1  LIG1        0.0235
     56 C           7.5980    8.2133   17.5352 C.3     1  LIG1        0.1640
     57 H           7.0939    8.2940   16.6751 H       1  LIG1        0.0913
     58 C           5.5164    8.6383   18.5722 C.3     1  LIG1        0.0394
     59 H           5.3404    7.8273   19.0943 H       1  LIG1        0.0525
     60 H           5.1874    8.5164   17.6576 H       1  LIG1        0.0525
     61 H           5.0558    9.3993   18.9851 H       1  LIG1        0.0525
@<TRIPOS>BOND
     1    12     9    1
     2     9    10    1
     3     9     1    1
     4     9    11    1
     5     1    13    1
     6     6     5    1
     7    18    17    1
     8     5    48    1
     9    16    15    1
    10    43    42    1
    11    13     4    1
    12    13    15    1
    13    13    14    1
    14    17    20    1
    15    17    15    1
    16    17    19    1
    17    41    40    1
    18     4    29    1
    19    54    52    1
    20    15    21    1
    21    49    48    1
    22    48    42    1
    23    48    50    1
    24    27    25    1
    25    36    34    1
    26    42    40    1
    27    42    44    1
    28    39    37    1
    29    57    56    1
    30    40    37    1
    31    40     8    1
    32    32    31    1
    33    55    52    1
    34    52    50    1
    35    52    53    1
    36    34    37    1
    37    34    31    1
    38    34    35    1
    39    37    38    1
    40    25    28    1
    41    25    26    1
    42    25    23    1
    43    50    56    1
    44    50    51    1
    45    47    44    1
    46    29    31    1
    47    29    23    1
    48    29    30    1
    49    56     8    1
    50    56     7    1
    51    31    33    1
    52    21    22    1
    53    21    23    1
    54    21     2    1
    55    60    58    1
    56    44    45    1
    57    44    46    1
    58    23    24    1
    59     2     3    1
    60     7    58    1
    61    58    61    1
    62    58    59    1
