@<TRIPOS>MOLECULE
?
 62 65 0 0 0
SMALL
GASTEIGER

@<TRIPOS>ATOM
      1 S          -0.0160    4.6652    7.4499 S.2     1  LIG1        0.0000
      2 B          -1.7451    7.0080    7.8021 B       1  LIG1        0.0000
      3 N          -3.0998    6.1663    8.1110 N.pl3   1  LIG1        0.0000
      4 F          -2.0894    9.9341    8.6534 F       1  LIG1        0.0000
      5 F          -2.8757    6.8457    5.1484 F       1  LIG1        0.0000
      6 F          -2.1247    5.7645   10.5961 F       1  LIG1        0.0000
      7 F          -3.7440    8.8423    3.6160 F       1  LIG1        0.0000
      8 F           0.3745    8.9238    8.0839 F       1  LIG1        0.0000
      9 F           1.8930    9.3918   10.2165 F       1  LIG1        0.0000
     10 F          -2.9842   11.8902    7.1070 F       1  LIG1        0.0000
     11 F          -3.7920   11.3933    4.5651 F       1  LIG1        0.0000
     12 F          -0.6051    6.2677   12.6959 F       1  LIG1        0.0000
     13 F           1.4311    8.0766   12.5588 F       1  LIG1        0.0000
     14 C          -2.8930   10.6448    6.6067 C.ar    1  LIG1        0.0000
     15 C           0.6594    7.8444   11.4853 C.ar    1  LIG1        0.0000
     16 C          -1.1599    6.7074   10.4392 C.ar    1  LIG1        0.0000
     17 C           0.8850    8.5111   10.3081 C.ar    1  LIG1        0.0000
     18 C          -0.9953    7.3548    9.2329 C.ar    1  LIG1        0.0000
     19 C           0.0793    8.2528    9.2159 C.ar    1  LIG1        0.0000
     20 C           0.0412    6.6111    5.8422 C.ar    1  LIG1        0.0000
     21 H          -0.1299    7.4409    5.4126 H       1  LIG1        0.0000
     22 C          -2.8095    8.0978    5.6650 C.ar    1  LIG1        0.0000
     23 C          -3.3126   10.3947    5.3264 C.ar    1  LIG1        0.0000
     24 C           1.0499    5.7195    5.4004 C.ar    1  LIG1        0.0000
     25 H           1.6134    5.8915    4.6553 H       1  LIG1        0.0000
     26 C          -5.2818    6.1873    9.0679 C.2     1  LIG1        0.0000
     27 H          -5.9612    6.6606    9.5327 H       1  LIG1        0.0000
     28 C          -3.3143    4.9011    7.7038 C.2     1  LIG1        0.0000
     29 H          -2.6346    4.4542    7.2135 H       1  LIG1        0.0000
     30 C           1.1252    4.5859    6.1613 C.ar    1  LIG1        0.0000
     31 C          -4.4874    4.2353    7.9756 C.2     1  LIG1        0.0000
     32 H          -4.6040    3.3356    7.6941 H       1  LIG1        0.0000
     33 C          -0.3717    6.9330   11.5569 C.ar    1  LIG1        0.0000
     34 C          -4.0848    6.7929    8.7948 C.2     1  LIG1        0.0000
     35 H          -3.9411    7.6819    9.0958 H       1  LIG1        0.0000
     36 C          -0.6614    6.1906    6.9223 C.ar    1  LIG1        0.0000
     37 C          -2.3087    8.2961    6.9417 C.ar    1  LIG1        0.0000
     38 C          -2.4157    9.6057    7.3858 C.ar    1  LIG1        0.0000
     39 C          -3.2844    9.1101    4.8434 C.ar    1  LIG1        0.0000
     40 C          -5.4947    4.8839    8.6613 C.3     1  LIG1        0.0000
     41 H          -6.3158    4.4446    8.8494 H       1  LIG1        0.0000
     42 C           1.8310    6.8716    2.0764 C.ar    2  LIG2        0.0000
     43 H           2.1493    7.6513    2.5170 H       2  LIG2        0.0000
     44 C           0.0614    5.6688    1.0449 C.ar    2  LIG2        0.0000
     45 H          -0.8527    5.5945    0.7973 H       2  LIG2        0.0000
     46 C           0.5020    6.8133    1.7014 C.ar    2  LIG2        0.0000
     47 C           0.9490    4.6192    0.7403 C.ar    2  LIG2        0.0000
     48 C           2.7193    5.8288    1.8289 C.ar    2  LIG2        0.0000
     49 C           2.2559    4.7147    1.1529 C.ar    2  LIG2        0.0000
     50 H           2.8545    4.0004    0.9709 H       2  LIG2        0.0000
     51 C          -0.4366    7.9614    1.9830 C.3     2  LIG2        0.0000
     52 H          -0.1015    8.4788    2.7451 H       2  LIG2        0.0000
     53 H          -1.3278    7.6106    2.1929 H       2  LIG2        0.0000
     54 H          -0.4904    8.5407    1.1942 H       2  LIG2        0.0000
     55 C           4.1639    5.9016    2.2840 C.3     2  LIG2        0.0000
     56 H           4.6205    5.0651    2.0570 H       2  LIG2        0.0000
     57 H           4.1940    6.0378    3.2548 H       2  LIG2        0.0000
     58 H           4.6106    6.6506    1.8349 H       2  LIG2        0.0000
     59 C           0.4681    3.4141   -0.0400 C.3     2  LIG2        0.0000
     60 H           0.6878    3.5291   -0.9879 H       2  LIG2        0.0000
     61 H          -0.5031    3.3257    0.0619 H       2  LIG2        0.0000
     62 H           0.9062    2.6070    0.3022 H       2  LIG2        0.0000
@<TRIPOS>BOND
     1    60    59    1
     2    59    61    1
     3    59    62    1
     4    59    47    1
     5    47    44   ar
     6    47    49   ar
     7    45    44    1
     8    50    49    1
     9    44    46   ar
    10    49    48   ar
    11    54    51    1
    12    46    51    1
    13    46    42   ar
    14    48    42   ar
    15    48    55    1
    16    58    55    1
    17    51    53    1
    18    51    52    1
    19    56    55    1
    20    42    43    1
    21    55    57    1
    22     7    39    1
    23    11    23    1
    24    25    24    1
    25    39    23   ar
    26    39    22   ar
    27     5    22    1
    28    23    14   ar
    29    24    20   ar
    30    24    30   ar
    31    21    20    1
    32    22    37   ar
    33    20    36   ar
    34    30     1   ar
    35    14    10    1
    36    14    38   ar
    37    36     1   ar
    38    36     2    1
    39    37    38   ar
    40    37     2    1
    41    29    28    1
    42    38     4    1
    43    32    31    1
    44    28    31    2
    45    28     3    1
    46     2     3    1
    47     2    18    1
    48    31    40    1
    49     8    19    1
    50     3    34    1
    51    40    41    1
    52    40    26    1
    53    34    26    2
    54    34    35    1
    55    26    27    1
    56    19    18   ar
    57    19    17   ar
    58    18    16   ar
    59     9    17    1
    60    17    15   ar
    61    16     6    1
    62    16    33   ar
    63    15    33   ar
    64    15    13    1
    65    33    12    1
