@<TRIPOS>MOLECULE
(1S,3E,7E,11S,12S)-4,8,12,15,15-pentamethylbicyclo[9.3.1]pentadeca- 3,7-dien-12-yl 4-iodobenzoate
 67 69 0 0 0
SMALL
GASTEIGER

@<TRIPOS>ATOM
      1 C           1.8272   11.1918    3.3305 C.3     1  LIG1       -0.0319
      2 H           1.5951   10.2255    3.2236 H       1  LIG1        0.0309
      3 C           2.4287   11.2961    4.7811 C.3     1  LIG1       -0.0312
      4 H           1.8610   10.7487    5.3799 H       1  LIG1        0.0310
      5 H           3.3232   10.8712    4.7626 H       1  LIG1        0.0310
      6 C           2.5834   12.6511    5.4179 C.2     1  LIG1       -0.0847
      7 H           3.0934   13.2892    4.9343 H       1  LIG1        0.0572
      8 C           2.0825   13.0548    6.5913 C.2     1  LIG1       -0.0762
      9 C           2.3401   14.4672    7.0871 C.3     1  LIG1       -0.0286
     10 H           3.0896   14.8574    6.5689 H       1  LIG1        0.0313
     11 H           2.6187   14.4279    8.0362 H       1  LIG1        0.0313
     12 C           1.1122   15.3972    6.9648 C.3     1  LIG1       -0.0308
     13 H           0.3462   14.9920    7.4427 H       1  LIG1        0.0310
     14 H           1.3158   16.2652    7.3949 H       1  LIG1        0.0310
     15 C           0.7337   15.6316    5.5392 C.2     1  LIG1       -0.0847
     16 H           1.4292   15.9719    4.9886 H       1  LIG1        0.0572
     17 C          -0.4228   15.4365    4.9256 C.2     1  LIG1       -0.0765
     18 C          -0.5550   15.6346    3.4251 C.3     1  LIG1       -0.0316
     19 H           0.1817   16.2183    3.1149 H       1  LIG1        0.0310
     20 H          -1.4074   16.1019    3.2388 H       1  LIG1        0.0310
     21 C          -0.5212   14.3251    2.6171 C.3     1  LIG1       -0.0424
     22 H          -0.6323   14.5474    1.6585 H       1  LIG1        0.0272
     23 H          -1.2985   13.7731    2.8867 H       1  LIG1        0.0272
     24 C           0.7645   13.4661    2.7730 C.3     1  LIG1        0.0044
     25 H           1.2181   13.8230    3.5910 H       1  LIG1        0.0345
     26 C           1.7821   13.6642    1.6285 C.3     1  LIG1        0.1144
     27 C           3.0904   12.9490    1.9498 C.3     1  LIG1       -0.0125
     28 H           3.5064   13.3678    2.7454 H       1  LIG1        0.0304
     29 H           3.7144   13.0503    1.1890 H       1  LIG1        0.0304
     30 C           2.8598   11.4655    2.2228 C.3     1  LIG1       -0.0458
     31 H           3.7205   11.0496    2.4802 H       1  LIG1        0.0269
     32 H           2.5542   11.0300    1.3868 H       1  LIG1        0.0269
     33 C           0.4851   11.9418    3.0886 C.3     1  LIG1       -0.0253
     34 C          -0.2981   11.2462    1.9470 C.3     1  LIG1       -0.0592
     35 H          -0.7270   10.4357    2.2933 H       1  LIG1        0.0235
     36 H           0.3199   11.0073    1.2260 H       1  LIG1        0.0235
     37 H          -0.9831   11.8556    1.6020 H       1  LIG1        0.0235
     38 C          -0.4063   11.8375    4.3250 C.3     1  LIG1       -0.0592
     39 H          -0.3920   10.9166    4.6604 H       1  LIG1        0.0235
     40 H          -1.3240   12.0840    4.0887 H       1  LIG1        0.0235
     41 H          -0.0736   12.4439    5.0191 H       1  LIG1        0.0235
     42 C           1.3120   13.3240    0.1993 C.3     1  LIG1       -0.0245
     43 H           0.3732   13.5856    0.0935 H       1  LIG1        0.0268
     44 H           1.4021   12.3607    0.0478 H       1  LIG1        0.0268
     45 H           1.8617   13.8109   -0.4500 H       1  LIG1        0.0268
     46 C          -1.6785   14.9829    5.6336 C.3     1  LIG1       -0.0438
     47 H          -1.4870   14.8483    6.5863 H       1  LIG1        0.0274
     48 H          -1.9879   14.1391    5.2408 H       1  LIG1        0.0274
     49 H          -2.3754   15.6649    5.5342 H       1  LIG1        0.0274
     50 C           1.2204   12.2246    7.4949 C.3     1  LIG1       -0.0438
     51 H           1.1535   11.3143    7.1363 H       1  LIG1        0.0274
     52 H           0.3252   12.6208    7.5471 H       1  LIG1        0.0274
     53 H           1.6177   12.1959    8.3905 H       1  LIG1        0.0274
     54 C           2.6180   15.9507    2.2793 C.2     1  LIG1        0.3397
     55 C           2.4002   17.3767    1.8822 C.ar    1  LIG1        0.0591
     56 C           1.7115   17.7184    0.7241 C.ar    1  LIG1       -0.0468
     57 H           1.3946   17.0334    0.1478 H       1  LIG1        0.0626
     58 C           1.4817   19.0431    0.3976 C.ar    1  LIG1       -0.0478
     59 H           1.0199   19.2700   -0.4000 H       1  LIG1        0.0628
     60 C           1.9361   20.0336    1.2531 C.ar    1  LIG1        0.0134
     61 C           2.6172   19.7146    2.4178 C.ar    1  LIG1       -0.0478
     62 H           2.9191   20.4011    2.9997 H       1  LIG1        0.0628
     63 C           2.8523   18.3868    2.7228 C.ar    1  LIG1       -0.0468
     64 H           3.3269   18.1630    3.5149 H       1  LIG1        0.0626
     65 I           1.5482   22.0484    0.7871 I       1  LIG1       -0.0438
     66 O           1.9841   15.1347    1.4418 O.3     1  LIG1       -0.4546
     67 O           3.2578   15.6227    3.2616 O.2     1  LIG1       -0.2449
@<TRIPOS>BOND
     1    45    42    1
     2    59    58    1
     3    44    42    1
     4    43    42    1
     5    57    56    1
     6    42    26    1
     7    58    56   ar
     8    58    60   ar
     9    56    55   ar
    10    65    60    1
    11    29    27    1
    12    36    34    1
    13    60    61   ar
    14    32    30    1
    15    66    26    1
    16    66    54    1
    17    37    34    1
    18    26    27    1
    19    26    24    1
    20    22    21    1
    21    55    54    1
    22    55    63   ar
    23    34    35    1
    24    34    33    1
    25    27    30    1
    26    27    28    1
    27    30    31    1
    28    30     1    1
    29    54    67    2
    30    61    63   ar
    31    61    62    1
    32    21    24    1
    33    21    23    1
    34    21    18    1
    35    63    64    1
    36    24    33    1
    37    24    25    1
    38    33     1    1
    39    33    38    1
    40    19    18    1
    41     2     1    1
    42    20    18    1
    43     1     3    1
    44    18    17    1
    45    40    38    1
    46    38    39    1
    47    38    41    1
    48     5     3    1
    49     3     4    1
    50     3     6    1
    51    17    15    2
    52    17    46    1
    53     7     6    1
    54    16    15    1
    55    48    46    1
    56     6     8    2
    57    49    46    1
    58    15    12    1
    59    46    47    1
    60    10     9    1
    61     8     9    1
    62     8    50    1
    63    12     9    1
    64    12    14    1
    65    12    13    1
    66     9    11    1
    67    51    50    1
    68    50    52    1
    69    50    53    1
