@<TRIPOS>MOLECULE
?
 25 25 0 0 0
SMALL
GASTEIGER

@<TRIPOS>ATOM
      1 P           7.1185    2.9803    6.6175 P.3     1  LIG1        0.3727
      2 P           4.0419    3.1175    6.3433 P.3     1  LIG1        0.4018
      3 O           7.3441    4.1170    5.6117 O.3     1  LIG1       -0.3217
      4 H           7.6411    3.8767    4.8787 H       1  LIG1        0.2198
      5 O           7.0174    3.5470    7.9866 O.2     1  LIG1       -0.2551
      6 O           8.1852    1.8788    6.4359 O.3     1  LIG1       -0.3217
      7 H           8.9736    2.0641    6.2085 H       1  LIG1        0.2198
      8 O           2.9655    2.3535    5.6113 O.2     1  LIG1       -0.2526
      9 O           3.7788    3.4404    7.7790 O.3     1  LIG1       -0.1374
     10 O           4.3507    4.4707    5.6061 O.3     1  LIG1       -0.3201
     11 H           4.5184    4.3504    4.7870 H       1  LIG1        0.2199
     12 O           5.7069    1.5712    4.8471 O.3     1  LIG1       -0.3659
     13 H           5.5474    2.1871    4.2982 H       1  LIG1        0.2117
     14 N           4.3093    0.0484    6.8755 N.pl3   1  LIG1       -0.2265
     15 N           3.2637    0.0721    7.7607 N.2     1  LIG1       -0.1753
     16 N           2.7892   -1.1228    5.9716 N.pl3   1  LIG1       -0.3117
     17 H           2.4258   -1.6854    5.4106 H       1  LIG1        0.1489
     18 C           5.5743    2.0768    6.1832 C.3     1  LIG1        0.2865
     19 C           5.5115    0.8430    7.1082 C.3     1  LIG1        0.0839
     20 H           6.3104    0.2781    6.9540 H       1  LIG1        0.0522
     21 H           5.5269    1.1418    8.0518 H       1  LIG1        0.0522
     22 C           2.3542   -0.6602    7.1741 C.2     1  LIG1        0.1009
     23 H           1.4972   -0.8455    7.5400 H       1  LIG1        0.1014
     24 C           4.0275   -0.6709    5.8138 C.3     1  LIG1        0.1407
     25 H           4.6006   -0.8357    5.0741 H       1  LIG1        0.0758
@<TRIPOS>BOND
     1    13    12    1
     2    11    10    1
     3    12    18    1
     4     4     3    1
     5    25    24    1
     6    17    16    1
     7    10     2    1
     8     8     2    2
     9     3     1    1
    10    24    16    1
    11    24    14    1
    12    16    22    1
    13    18     2    1
    14    18     1    1
    15    18    19    1
    16     7     6    1
    17     2     9    1
    18     6     1    1
    19     1     5    2
    20    14    19    1
    21    14    15    1
    22    20    19    1
    23    19    21    1
    24    22    23    1
    25    22    15    2
