@<TRIPOS>MOLECULE
Sterekunthal B
 42 46 0 0 0
SMALL
GASTEIGER

@<TRIPOS>ATOM
      1 O           4.1859    1.7746   13.5342 O.3     1  LIG1       -0.3530
      2 O           1.8568   -1.5344   12.8680 O.2     1  LIG1       -0.3003
      3 O           5.0521   -0.7040   12.7131 O.2     1  LIG1       -0.2885
      4 O           4.6570    3.4117    9.2123 O.2     1  LIG1       -0.2869
      5 C           2.3265    3.1802   12.8244 C.3     1  LIG1        0.0106
      6 C           3.2922    2.8444   13.9989 C.3     1  LIG1        0.0750
      7 C           2.3540    2.2597   15.0606 C.3     1  LIG1       -0.0231
      8 C           1.1462    1.7066   14.2816 C.3     1  LIG1       -0.0460
      9 C           1.5283    1.8417   12.7943 C.3     1  LIG1       -0.0168
     10 C           2.4260    0.7024   12.2078 C.3     1  LIG1        0.0670
     11 C           3.8980    1.3100   12.2063 C.3     1  LIG1        0.1722
     12 C           3.9190    2.4612   11.2289 C.2     1  LIG1        0.0364
     13 C           3.0933    3.4496   11.5823 C.2     1  LIG1       -0.0679
     14 C           4.1519    3.9979   14.4620 C.3     1  LIG1       -0.0352
     15 C           2.4037   -0.4859   13.1628 C.2     1  LIG1        0.1300
     16 C           1.9876    0.2876   10.8213 C.3     1  LIG1       -0.0494
     17 C           4.9187    0.2165   11.9176 C.2     1  LIG1        0.2009
     18 C           4.7237    2.4888   10.0108 C.2     1  LIG1        0.1928
     19 C           5.6396    1.3376    9.7612 C.ar    1  LIG1        0.0326
     20 C           5.7168    0.2671   10.6710 C.ar    1  LIG1        0.0315
     21 C           6.6079   -0.7877   10.4198 C.ar    1  LIG1       -0.0505
     22 C           7.3969   -0.7617    9.2980 C.ar    1  LIG1       -0.0611
     23 C           7.3289    0.2939    8.3972 C.ar    1  LIG1       -0.0610
     24 C           6.4326    1.3234    8.6198 C.ar    1  LIG1       -0.0502
     25 H           1.7612    3.9118   13.0440 H       1  LIG1        0.0374
     26 H           2.0753    2.9360   15.6666 H       1  LIG1        0.0293
     27 H           2.7871    1.5636   15.5403 H       1  LIG1        0.0293
     28 H           0.3664    2.2139   14.4726 H       1  LIG1        0.0269
     29 H           0.9945    0.7964   14.5042 H       1  LIG1        0.0269
     30 H           0.7445    1.9429   12.2650 H       1  LIG1        0.0318
     31 H           3.0043    4.2531   11.0845 H       1  LIG1        0.0581
     32 H           4.7132    3.7103   15.1718 H       1  LIG1        0.0257
     33 H           3.5958    4.7058   14.7643 H       1  LIG1        0.0257
     34 H           4.6870    4.3037   13.7387 H       1  LIG1        0.0257
     35 H           2.8277   -0.4077   14.0094 H       1  LIG1        0.1033
     36 H           1.1004   -0.0506   10.8574 H       1  LIG1        0.0240
     37 H           2.5699   -0.3879   10.4935 H       1  LIG1        0.0240
     38 H           2.0164    1.0398   10.2409 H       1  LIG1        0.0240
     39 H           6.6642   -1.5178   11.0259 H       1  LIG1        0.0625
     40 H           8.0002   -1.4767    9.1356 H       1  LIG1        0.0618
     41 H           7.8942    0.3081    7.6333 H       1  LIG1        0.0618
     42 H           6.3580    2.0274    7.9867 H       1  LIG1        0.0625
@<TRIPOS>BOND
     1    41    23    1
     2    42    24    1
     3    23    24   ar
     4    23    22   ar
     5    24    19   ar
     6    40    22    1
     7     4    18    2
     8    22    21   ar
     9    19    18    1
    10    19    20   ar
    11    18    12    1
    12    38    16    1
    13    21    20   ar
    14    21    39    1
    15    37    16    1
    16    20    17    1
    17    16    36    1
    18    16    10    1
    19    31    13    1
    20    12    13    2
    21    12    11    1
    22    13     5    1
    23    17    11    1
    24    17     3    2
    25    11    10    1
    26    11     1    1
    27    10     9    1
    28    10    15    1
    29    30     9    1
    30     9     5    1
    31     9     8    1
    32     5    25    1
    33     5     6    1
    34     2    15    2
    35    15    35    1
    36     1     6    1
    37    34    14    1
    38     6    14    1
    39     6     7    1
    40     8    28    1
    41     8    29    1
    42     8     7    1
    43    14    33    1
    44    14    32    1
    45     7    27    1
    46     7    26    1
