@<TRIPOS>MOLECULE
?
 35 37 0 0 0
SMALL
GASTEIGER

@<TRIPOS>ATOM
      1 O          -2.5256    3.3790    9.9947 O.2     1  LIG1       -0.2856
      2 O           3.4481   -0.3504    8.1020 O.3     1  LIG1       -0.4950
      3 N           0.3121    3.0175    9.9254 N.2     1  LIG1       -0.1782
      4 N          -0.4101    2.2112    9.1974 N.pl3   1  LIG1       -0.2370
      5 H          -1.3580    2.3878    9.2260 H       1  LIG1        0.1744
      6 C          -0.3116    3.9771   10.6215 C.2     1  LIG1        0.1359
      7 C          -1.7545    4.1525   10.6395 C.2     1  LIG1        0.2063
      8 C          -2.2787    5.2409   11.4290 C.2     1  LIG1       -0.0121
      9 C          -1.4736    6.0772   12.0949 C.2     1  LIG1       -0.0503
     10 C          -0.0370    5.9439   12.0962 C.ar    1  LIG1       -0.0156
     11 C           0.5490    4.8755   11.3744 C.ar    1  LIG1        0.0128
     12 C           0.7909    6.8452   12.7816 C.ar    1  LIG1       -0.0540
     13 C           2.1523    6.6991   12.7863 C.ar    1  LIG1       -0.0612
     14 C           2.7320    5.6307   12.0944 C.ar    1  LIG1       -0.0611
     15 C           1.9466    4.7389   11.4005 C.ar    1  LIG1       -0.0518
     16 C           0.2083    1.1717    8.4846 C.ar    1  LIG1        0.0518
     17 C          -0.6051    0.3737    7.6741 C.ar    1  LIG1       -0.0389
     18 C          -0.0439   -0.6969    7.0112 C.ar    1  LIG1       -0.0565
     19 C           1.3035   -0.9923    7.1291 C.ar    1  LIG1       -0.0198
     20 C           2.1061   -0.1710    7.9225 C.ar    1  LIG1        0.1219
     21 C           1.5632    0.9140    8.6008 C.ar    1  LIG1        0.0026
     22 C           4.0606   -1.4538    7.4332 C.3     1  LIG1        0.0788
     23 H          -3.2239    5.3309   11.4551 H       1  LIG1        0.0657
     24 H          -1.8422    6.7691   12.6393 H       1  LIG1        0.0625
     25 H           0.3817    7.5687   13.2493 H       1  LIG1        0.0624
     26 H           2.7292    7.2911   13.2509 H       1  LIG1        0.0618
     27 H           3.7251    5.5030   12.1246 H       1  LIG1        0.0618
     28 H           2.3583    4.0148   10.8795 H       1  LIG1        0.0624
     29 H          -1.5371    0.6053    7.5929 H       1  LIG1        0.0637
     30 H          -0.5858   -1.2383    6.4651 H       1  LIG1        0.0619
     31 H           1.6841   -1.7547    6.6450 H       1  LIG1        0.0654
     32 H           2.1554    1.4604    9.1650 H       1  LIG1        0.0673
     33 H           3.6909   -2.3212    7.7666 H       1  LIG1        0.0660
     34 H           3.9194   -1.4049    6.4667 H       1  LIG1        0.0660
     35 H           5.0591   -1.3494    7.6618 H       1  LIG1        0.0660
@<TRIPOS>BOND
     1    30    18    1
     2    34    22    1
     3    31    19    1
     4    18    19   ar
     5    18    17   ar
     6    19    20   ar
     7    22    35    1
     8    22    33    1
     9    22     2    1
    10    29    17    1
    11    17    16   ar
    12    20     2    1
    13    20    21   ar
    14    16    21   ar
    15    16     4    1
    16    21    32    1
    17     4     5    1
    18     4     3    1
    19     3     6    2
    20     1     7    2
    21     6     7    1
    22     6    11    1
    23     7     8    1
    24    28    15    1
    25    11    15   ar
    26    11    10   ar
    27    15    14   ar
    28     8    23    1
    29     8     9    2
    30    14    27    1
    31    14    13   ar
    32     9    10    1
    33     9    24    1
    34    10    12   ar
    35    12    13   ar
    36    12    25    1
    37    13    26    1
