@<TRIPOS>MOLECULE
C8 H8 O4
 20 19 0 0 0
SMALL
GASTEIGER

@<TRIPOS>ATOM
      1 O           5.0681   -2.3425   -3.2499 O.2     1  LIG1       -0.2447
      2 O           7.0207   -3.2302   -2.6750 O.3     1  LIG1       -0.4643
      3 O           8.5181   -1.0599   -1.2526 O.2     1  LIG1       -0.2447
      4 O           7.6777   -2.3577    0.3257 O.3     1  LIG1       -0.4643
      5 C           5.2783   -0.8020   -0.6889 C.2     1  LIG1       -0.0402
      6 C           3.9253   -0.6485   -1.1767 C.3     1  LIG1       -0.0041
      7 C           5.5806   -0.0918    0.5278 C.3     1  LIG1       -0.0041
      8 C           6.2226   -1.5692   -1.2997 C.2     1  LIG1        0.1425
      9 C           5.9995   -2.3822   -2.5093 C.2     1  LIG1        0.3459
     10 C           6.9587   -4.0881   -3.8182 C.3     1  LIG1        0.0820
     11 C           7.6064   -1.6304   -0.7588 C.2     1  LIG1        0.3459
     12 C           8.9321   -2.3920    1.0222 C.3     1  LIG1        0.0820
     13 H           3.6516   -1.0939   -1.9668 H       1  LIG1        0.0358
     14 H           6.4475   -0.1532    0.9133 H       1  LIG1        0.0358
     15 H           6.9594   -3.5553   -4.6140 H       1  LIG1        0.0661
     16 H           6.1726   -4.6085   -3.7914 H       1  LIG1        0.0661
     17 H           7.7228   -4.6551   -3.8309 H       1  LIG1        0.0661
     18 H           9.6269   -2.6234    0.4148 H       1  LIG1        0.0661
     19 H           8.8921   -3.0363    1.7171 H       1  LIG1        0.0661
     20 H           9.1098   -1.5346    1.3924 H       1  LIG1        0.0661
@<TRIPOS>BOND
     1    15    10    1
     2    17    10    1
     3    10    16    1
     4    10     2    1
     5     1     9    2
     6     2     9    1
     7     9     8    1
     8    13     6    1
     9     8    11    1
    10     8     5    2
    11     3    11    2
    12     6     5    1
    13    11     4    1
    14     5     7    1
    15     4    12    1
    16    18    12    1
    17     7    14    1
    18    12    20    1
    19    12    19    1
