@<TRIPOS>MOLECULE
C17 H22 O3 S
 43 45 0 0 0
SMALL
GASTEIGER

@<TRIPOS>ATOM
      1 S          -6.7190   -2.9655   -4.6719 S.O2    1  LIG1        0.0106
      2 O          -6.4282   -2.4892   -5.9977 O.2     1  LIG1       -0.1684
      3 O          -8.4396   -0.3018   -4.4773 O.2     1  LIG1       -0.2950
      4 O          -6.3912   -4.3375   -4.3751 O.2     1  LIG1       -0.1684
      5 C          -5.9107   -1.9277   -3.4638 C.ar    1  LIG1        0.0951
      6 C          -4.6764    0.0409   -2.8393 C.ar    1  LIG1       -0.0541
      7 C          -8.8446   -1.3137   -3.9640 C.2     1  LIG1        0.1615
      8 C          -5.8829   -2.3741   -2.1141 C.ar    1  LIG1       -0.0251
      9 C         -10.2813   -2.8704   -2.7127 C.3     1  LIG1       -0.0404
     10 C          -8.4480   -2.7118   -4.3626 C.3     1  LIG1        0.1589
     11 C          -5.2234   -1.5759   -1.1783 C.ar    1  LIG1       -0.0541
     12 C          -5.2864   -0.1164   -5.2317 C.3     1  LIG1       -0.0379
     13 C          -4.6067   -0.3761   -1.5135 C.ar    1  LIG1       -0.0498
     14 C          -5.3116   -0.6997   -3.8374 C.ar    1  LIG1       -0.0251
     15 C          -9.3840   -3.6801   -3.6541 C.3     1  LIG1       -0.0001
     16 C          -9.5402   -3.4883   -5.1375 C.3     1  LIG1        0.0030
     17 C          -9.0773   -4.6242   -6.0361 C.3     1  LIG1       -0.0570
     18 C         -10.7165   -2.7157   -5.7084 C.3     1  LIG1       -0.0570
     19 C          -3.8875    0.4503   -0.4841 C.3     1  LIG1       -0.0397
     20 C          -6.5131   -3.6533   -1.6044 C.3     1  LIG1       -0.0379
     21 C          -9.8234   -1.4084   -2.8065 C.3     1  LIG1        0.0084
     22 H          -3.4783   -0.0767    0.2383 H       1  LIG1        0.0278
     23 H          -3.1927    1.0745   -0.8789 H       1  LIG1        0.0278
     24 H          -4.4446    0.9850   -0.0149 H       1  LIG1        0.0278
     25 H          -5.2511   -1.8804   -0.2532 H       1  LIG1        0.0623
     26 H          -4.2765    0.8698   -3.0985 H       1  LIG1        0.0623
     27 H          -4.8814    0.7803   -5.1989 H       1  LIG1        0.0278
     28 H          -6.1753    0.0000   -5.6011 H       1  LIG1        0.0278
     29 H          -4.8058   -0.6396   -5.8395 H       1  LIG1        0.0278
     30 H          -6.4610   -3.7224   -0.6852 H       1  LIG1        0.0278
     31 H          -6.0913   -4.4003   -1.9515 H       1  LIG1        0.0278
     32 H          -7.3852   -3.7479   -1.8770 H       1  LIG1        0.0278
     33 H          -8.7463   -4.3491   -6.8524 H       1  LIG1        0.0236
     34 H          -9.8385   -5.2062   -6.2119 H       1  LIG1        0.0236
     35 H          -8.3430   -5.0911   -5.6011 H       1  LIG1        0.0236
     36 H         -10.9980   -1.9571   -5.1691 H       1  LIG1        0.0236
     37 H         -10.5611   -2.4048   -6.5545 H       1  LIG1        0.0236
     38 H         -11.4853   -3.2874   -5.7501 H       1  LIG1        0.0236
     39 H          -9.0991   -4.4643   -3.3964 H       1  LIG1        0.0333
     40 H         -10.2334   -3.2107   -1.8025 H       1  LIG1        0.0273
     41 H         -11.1744   -2.9804   -3.0389 H       1  LIG1        0.0273
     42 H         -10.5695   -0.8059   -2.9942 H       1  LIG1        0.0342
     43 H          -9.2588   -1.2280   -1.9515 H       1  LIG1        0.0342
@<TRIPOS>BOND
     1    33    17    1
     2    37    18    1
     3    34    17    1
     4    17    35    1
     5    17    16    1
     6     2     1    2
     7    29    12    1
     8    38    18    1
     9    18    36    1
    10    18    16    1
    11    28    12    1
    12    12    27    1
    13    12    14    1
    14    16    10    1
    15    16    15    1
    16     1     4    2
    17     1    10    1
    18     1     5    1
    19     3     7    2
    20    10     7    1
    21    10    15    1
    22     7    21    1
    23    14     5   ar
    24    14     6   ar
    25    15    39    1
    26    15     9    1
    27     5     8   ar
    28    26     6    1
    29    41     9    1
    30    42    21    1
    31     6    13   ar
    32    21     9    1
    33    21    43    1
    34     9    40    1
    35     8    20    1
    36     8    11   ar
    37    31    20    1
    38    32    20    1
    39    20    30    1
    40    13    11   ar
    41    13    19    1
    42    11    25    1
    43    23    19    1
    44    19    24    1
    45    19    22    1
