@<TRIPOS>MOLECULE
?
 41 42 0 0 0
SMALL
GASTEIGER

@<TRIPOS>ATOM
      1 O           3.2901    4.3259    4.5733 O.3     1  LIG1       -0.3382
      2 O           0.6571    3.6883    5.2240 O.3     1  LIG1       -0.3357
      3 O           1.8234    1.9386    4.2334 O.3     1  LIG1       -0.3478
      4 O           1.6967    5.3297    3.1833 O.3     1  LIG1       -0.3478
      5 O           0.1581    3.3407    8.0470 O.3     1  LIG1       -0.3851
      6 H          -0.4478    3.6569    8.5008 H       1  LIG1        0.2103
      7 O           5.1105    4.3793    9.5966 O.3     1  LIG1       -0.3907
      8 H           5.6227    4.2761    8.9656 H       1  LIG1        0.2098
      9 C           2.3510    4.1203    3.5312 C.3     1  LIG1        0.2221
     10 C           1.2035    3.1876    4.0186 C.3     1  LIG1        0.2221
     11 C           1.6324    3.8619    6.2533 C.3     1  LIG1        0.1179
     12 H           2.0249    2.9911    6.4696 H       1  LIG1        0.0652
     13 C           2.7260    4.7947    5.8023 C.3     1  LIG1        0.0948
     14 H           2.3517    5.6899    5.6641 H       1  LIG1        0.0627
     15 C           0.9397    4.4078    7.4793 C.3     1  LIG1        0.1023
     16 H           0.3477    5.1442    7.2195 H       1  LIG1        0.0665
     17 C           1.9542    4.9070    8.4594 C.2     1  LIG1       -0.0519
     18 H           1.6527    5.1130    9.3137 H       1  LIG1        0.0599
     19 C           3.2459    5.0806    8.2153 C.2     1  LIG1       -0.0434
     20 C           3.8196    4.8677    6.8366 C.3     1  LIG1       -0.0005
     21 H           4.4199    5.5977    6.6214 H       1  LIG1        0.0337
     22 H           4.3318    4.0437    6.8233 H       1  LIG1        0.0337
     23 C           0.0392    3.1056    3.0461 C.3     1  LIG1       -0.0052
     24 H          -0.6367    2.5254    3.4033 H       1  LIG1        0.0283
     25 H           0.3470    2.7588    2.2053 H       1  LIG1        0.0283
     26 H          -0.3303    3.9826    2.9145 H       1  LIG1        0.0283
     27 C           0.9964    0.9526    4.8685 C.3     1  LIG1        0.0399
     28 H           1.4924    0.1367    4.9716 H       1  LIG1        0.0525
     29 H           0.2204    0.7892    4.3273 H       1  LIG1        0.0525
     30 H           0.7235    1.2716    5.7308 H       1  LIG1        0.0525
     31 C           3.1507    3.5502    2.3760 C.3     1  LIG1       -0.0052
     32 H           3.8399    4.1693    2.1275 H       1  LIG1        0.0283
     33 H           2.5686    3.4002    1.6276 H       1  LIG1        0.0283
     34 H           3.5488    2.7177    2.6423 H       1  LIG1        0.0283
     35 C           2.5147    6.4691    2.9454 C.3     1  LIG1        0.0399
     36 H           1.9598    7.2183    2.7163 H       1  LIG1        0.0525
     37 H           3.1178    6.2846    2.2220 H       1  LIG1        0.0525
     38 H           3.0171    6.6736    3.7366 H       1  LIG1        0.0525
     39 C           4.2121    5.4432    9.3087 C.3     1  LIG1        0.0655
     40 H           4.7187    6.2257    9.0415 H       1  LIG1        0.0604
     41 H           3.7161    5.6688   10.1118 H       1  LIG1        0.0604
@<TRIPOS>BOND
     1    33    31    1
     2    32    31    1
     3    25    23    1
     4    37    35    1
     5    31    34    1
     6    31     9    1
     7    36    35    1
     8    26    23    1
     9    35     4    1
    10    35    38    1
    11    23    24    1
    12    23    10    1
    13     4     9    1
    14     9    10    1
    15     9     1    1
    16    10     3    1
    17    10     2    1
    18     3    27    1
    19    29    27    1
    20     1    13    1
    21    27    28    1
    22    27    30    1
    23     2    11    1
    24    14    13    1
    25    13    11    1
    26    13    20    1
    27    11    12    1
    28    11    15    1
    29    21    20    1
    30    22    20    1
    31    20    19    1
    32    16    15    1
    33    15     5    1
    34    15    17    1
    35     5     6    1
    36    19    17    2
    37    19    39    1
    38    17    18    1
    39     8     7    1
    40    40    39    1
    41    39     7    1
    42    39    41    1
