@<TRIPOS>MOLECULE
?
 29 28 0 0 0
SMALL
GASTEIGER

@<TRIPOS>ATOM
      1 O           0.5718    5.6383   15.9109 O.2     1  LIG1       -0.2486
      2 O           2.3350    4.2804   16.1310 O.3     1  LIG1       -0.4666
      3 O           0.5157    2.6939   19.4803 O.3     1  LIG1       -0.3893
      4 H           1.2592    2.3038   19.5003 H       1  LIG1        0.2099
      5 O           1.6894    7.0193   18.9290 O.2     1  LIG1       -0.2759
      6 O           2.6803    1.1853   19.5448 O.3     2  HOH2       -0.4105
      7 H           2.9480    1.2042   20.3409 H       0  HOH0        0.2052
      8 H           2.3756    0.4194   19.3817 H       0  HOH0        0.2052
      9 N           0.0899    5.4820   18.6497 N.am    1  LIG1       -0.2860
     10 C           1.0093    4.5478   18.0207 C.3     1  LIG1        0.1490
     11 H           1.8747    4.5304   18.5203 H       1  LIG1        0.0643
     12 C           0.2843    3.2032   18.1776 C.3     1  LIG1        0.0855
     13 H           0.5539    2.5505   17.4696 H       1  LIG1        0.0618
     14 C          -1.1687    3.5986   18.0540 C.3     1  LIG1       -0.0087
     15 H          -1.7559    2.9200   18.4725 H       1  LIG1        0.0306
     16 H          -1.4266    3.7032   17.1034 H       1  LIG1        0.0306
     17 C          -1.2648    4.9290   18.7918 C.3     1  LIG1        0.0180
     18 H          -1.9387    5.5220   18.3747 H       1  LIG1        0.0465
     19 H          -1.4980    4.7945   19.7438 H       1  LIG1        0.0465
     20 C           1.2574    4.9124   16.5640 C.2     1  LIG1        0.3302
     21 C           2.6975    4.5129   14.7330 C.3     1  LIG1        0.0817
     22 H           2.8803    5.4664   14.5982 H       1  LIG1        0.0661
     23 H           1.9571    4.2372   14.1529 H       1  LIG1        0.0661
     24 H           3.4976    3.9922   14.5129 H       1  LIG1        0.0661
     25 C           0.5084    6.6764   19.0767 C.2     1  LIG1        0.2132
     26 C          -0.5059    7.5517   19.7585 C.3     1  LIG1        0.0124
     27 H          -0.1336    8.4495   19.8790 H       1  LIG1        0.0323
     28 H          -0.7312    7.1705   20.6322 H       1  LIG1        0.0323
     29 H          -1.3146    7.6041   19.2069 H       1  LIG1        0.0323
@<TRIPOS>BOND
     1    23    21    1
     2    24    21    1
     3    22    21    1
     4    21     2    1
     5     1    20    2
     6     2    20    1
     7    20    10    1
     8    16    14    1
     9    13    12    1
    10    10    12    1
    11    10    11    1
    12    10     9    1
    13    14    12    1
    14    14    15    1
    15    14    17    1
    16    12     3    1
    17    18    17    1
    18     9    17    1
    19     9    25   am
    20    17    19    1
    21     5    25    2
    22    25    26    1
    23    29    26    1
    24     8     6    1
    25     3     4    1
    26     6     7    1
    27    26    27    1
    28    26    28    1
