@<TRIPOS>MOLECULE
?
 53 54 0 0 0
SMALL
GASTEIGER

@<TRIPOS>ATOM
      1 C          27.9474    2.9384    1.8860 C.3     1  LIG1        0.0231
      2 H          27.4602    2.7745    2.7445 H       1  LIG1        0.0386
      3 C          27.2411    4.1138    1.1885 C.3     1  LIG1        0.0236
      4 H          27.3239    4.9205    1.7581 H       1  LIG1        0.0471
      5 H          27.7008    4.3024    0.3332 H       1  LIG1        0.0471
      6 N          25.8289    3.8680    0.9192 N.am    1  LIG1       -0.3008
      7 C          24.8922    4.0555    2.0339 C.3     1  LIG1        0.0149
      8 H          25.4053    4.0628    2.8811 H       1  LIG1        0.0464
      9 H          24.2765    3.2815    2.0632 H       1  LIG1        0.0464
     10 C          24.0690    5.3320    1.9546 C.3     1  LIG1       -0.0338
     11 H          24.6595    6.0699    1.6552 H       1  LIG1        0.0283
     12 H          23.7493    5.5560    2.8630 H       1  LIG1        0.0283
     13 C          22.8581    5.2598    1.0101 C.3     1  LIG1       -0.0343
     14 H          22.2777    4.5212    1.3563 H       1  LIG1        0.0306
     15 C          23.2547    4.8597   -0.4130 C.3     1  LIG1       -0.0414
     16 H          23.8636    5.5525   -0.7730 H       1  LIG1        0.0273
     17 H          22.4401    4.8580   -0.9751 H       1  LIG1        0.0273
     18 C          23.9441    3.4884   -0.5565 C.3     1  LIG1        0.0244
     19 H          23.5287    2.8544    0.0799 H       1  LIG1        0.0358
     20 H          23.7814    3.1461   -1.4711 H       1  LIG1        0.0358
     21 C          25.4271    3.5187   -0.3070 C.2     1  LIG1        0.2156
     22 C          27.8913    1.6376    1.0812 C.3     1  LIG1        0.0524
     23 H          28.4326    0.9515    1.5448 H       1  LIG1        0.0564
     24 H          26.9550    1.3161    1.0594 H       1  LIG1        0.0564
     25 O          28.3650    1.7727   -0.2622 O.3     1  LIG1       -0.3944
     26 H          27.6667    2.1460   -0.6919 H       1  LIG1        0.2094
     27 C          29.3406    3.4055    2.2497 C.ar    1  LIG1       -0.0405
     28 C          29.5781    3.8892    3.5337 C.ar    1  LIG1       -0.0560
     29 H          28.8656    3.9170    4.1607 H       1  LIG1        0.0621
     30 C          30.8295    4.3295    3.9118 C.ar    1  LIG1       -0.0312
     31 H          30.9827    4.6531    4.7921 H       1  LIG1        0.0640
     32 C          31.8536    4.2906    2.9853 C.ar    1  LIG1        0.1262
     33 C          31.6583    3.8426    1.6889 C.ar    1  LIG1       -0.0312
     34 H          32.3721    3.8371    1.0631 H       1  LIG1        0.0640
     35 C          30.3949    3.4016    1.3283 C.ar    1  LIG1       -0.0560
     36 H          30.2389    3.0940    0.4430 H       1  LIG1        0.0621
     37 N          33.1882    4.7424    3.3977 N.pl3   1  LIG1        0.0564
     38 O          33.3448    5.1094    4.5563 O.2     1  LIG1       -0.1261
     39 O          34.0832    4.7111    2.5648 O.2     1  LIG1       -0.1261
     40 C          21.9910    6.5546    1.0513 C.3     1  LIG1       -0.0348
     41 C          22.7017    7.7287    0.3725 C.3     1  LIG1       -0.0598
     42 H          22.7990    7.5422   -0.5846 H       1  LIG1        0.0235
     43 H          23.5869    7.8513    0.7736 H       1  LIG1        0.0235
     44 H          22.1715    8.5458    0.4935 H       1  LIG1        0.0235
     45 C          21.6763    6.9380    2.5049 C.3     1  LIG1       -0.0598
     46 H          21.2974    6.1636    2.9722 H       1  LIG1        0.0235
     47 H          21.0307    7.6742    2.5155 H       1  LIG1        0.0235
     48 H          22.5003    7.2193    2.9541 H       1  LIG1        0.0235
     49 C          20.6470    6.3248    0.3475 C.3     1  LIG1       -0.0598
     50 H          20.1807    5.5768    0.7718 H       1  LIG1        0.0235
     51 H          20.8062    6.1185   -0.5977 H       1  LIG1        0.0235
     52 H          20.1005    7.1325    0.4180 H       1  LIG1        0.0235
     53 O          26.2319    3.2548   -1.2200 O.2     1  LIG1       -0.2756
@<TRIPOS>BOND
     1    20    18    1
     2    53    21    2
     3    17    15    1
     4    16    15    1
     5    26    25    1
     6    51    49    1
     7    42    41    1
     8    18    15    1
     9    18    21    1
    10    18    19    1
    11    15    13    1
    12    21     6   am
    13    25    22    1
    14     5     3    1
    15    49    52    1
    16    49    50    1
    17    49    40    1
    18    41    44    1
    19    41    43    1
    20    41    40    1
    21    36    35    1
    22     6     3    1
    23     6     7    1
    24    13    40    1
    25    13    14    1
    26    13    10    1
    27    40    45    1
    28    24    22    1
    29    34    33    1
    30    22    23    1
    31    22     1    1
    32     3     4    1
    33     3     1    1
    34    35    33   ar
    35    35    27   ar
    36    11    10    1
    37    33    32   ar
    38     1    27    1
    39     1     2    1
    40    10     7    1
    41    10    12    1
    42     7     9    1
    43     7     8    1
    44    27    28   ar
    45    45    47    1
    46    45    48    1
    47    45    46    1
    48    39    37    2
    49    32    37    1
    50    32    30   ar
    51    37    38    2
    52    28    30   ar
    53    28    29    1
    54    30    31    1
