@<TRIPOS>MOLECULE
4-(4-aminobenzyl)phenol
 28 29 0 0 0
SMALL
GASTEIGER

@<TRIPOS>ATOM
      1 O           4.5274    1.0144    0.6129 O.3     1  LIG1       -0.5068
      2 H           4.6006    0.1065    0.7460 H       1  LIG1        0.2921
      3 N          -0.8575    1.6795    8.6886 N.pl3   1  LIG1       -0.3580
      4 H          -1.7225    1.6075    8.9161 H       1  LIG1        0.1423
      5 H          -0.4104    2.0936    9.3733 H       1  LIG1        0.1423
      6 C           3.5472    1.6150    1.3508 C.ar    1  LIG1        0.1169
      7 C           2.6504    0.9037    2.1525 C.ar    1  LIG1       -0.0199
      8 H           2.7296   -0.0407    2.2046 H       1  LIG1        0.0654
      9 C           1.6479    1.5844    2.8382 C.ar    1  LIG1       -0.0548
     10 H           1.0111    1.0555    3.3667 H       1  LIG1        0.0622
     11 C           1.5180    2.9724    2.7515 C.ar    1  LIG1       -0.0428
     12 C           2.4388    3.6689    1.9647 C.ar    1  LIG1       -0.0548
     13 H           2.3829    4.6442    1.9225 H       1  LIG1        0.0622
     14 C           3.4410    2.9996    1.2683 C.ar    1  LIG1       -0.0199
     15 H           4.0873    3.4783    0.7403 H       1  LIG1        0.0654
     16 C           0.3982    3.7227    3.4591 C.3     1  LIG1       -0.0024
     17 H          -0.4176    3.6778    2.9248 H       1  LIG1        0.0361
     18 H           0.6672    4.7042    3.5379 H       1  LIG1        0.0361
     19 C          -0.5842    2.2218    7.4076 C.ar    1  LIG1        0.0246
     20 C           0.6487    2.8334    7.1578 C.ar    1  LIG1       -0.0408
     21 H           1.2981    2.9109    7.8889 H       1  LIG1        0.0636
     22 C           0.9517    3.3069    5.8904 C.ar    1  LIG1       -0.0565
     23 H           1.8156    3.7320    5.7215 H       1  LIG1        0.0621
     24 C           0.0488    3.1849    4.8314 C.ar    1  LIG1       -0.0429
     25 C          -1.1721    2.5630    5.0868 C.ar    1  LIG1       -0.0565
     26 H          -1.7995    2.4635    4.3911 H       1  LIG1        0.0621
     27 C          -1.4896    2.0827    6.3582 C.ar    1  LIG1       -0.0408
     28 H          -2.3431    1.6443    6.5383 H       1  LIG1        0.0636
@<TRIPOS>BOND
     1     1     2    1
     2     1     6    1
     3    15    14    1
     4    14     6   ar
     5    14    12   ar
     6     6     7   ar
     7    13    12    1
     8    12    11   ar
     9     7     8    1
    10     7     9   ar
    11    11     9   ar
    12    11    16    1
    13     9    10    1
    14    17    16    1
    15    16    18    1
    16    16    24    1
    17    26    25    1
    18    24    25   ar
    19    24    22   ar
    20    25    27   ar
    21    23    22    1
    22    22    20   ar
    23    27    28    1
    24    27    19   ar
    25    20    19   ar
    26    20    21    1
    27    19     3    1
    28     3     4    1
    29     3     5    1
