@<TRIPOS>MOLECULE
2,15-Dihydroxy-11,24-dioxapentacyclo[7.4.1.1^10,13^,7.4.1.1^23,26^]-  triaconta-5,18-diene-3,7,16,20-tetrayne-12,25-dione Dichloromethane Solvate
 58 62 0 0 0
SMALL
GASTEIGER

@<TRIPOS>ATOM
      1 C          -5.3582    0.5131   13.0464 C.3     1  LIG1        0.0105
      2 H          -5.6278    1.3950   13.4303 H       1  LIG1        0.0344
      3 C          -4.5752   -0.2541   14.1068 C.3     1  LIG1        0.1194
      4 H          -4.3131   -1.1443   13.7362 H       1  LIG1        0.0734
      5 C          -3.3551    0.4768   14.4996 C.1     1  LIG1       -0.0660
      6 C          -2.4015    1.0834   14.8923 C.1     1  LIG1       -0.0709
      7 C          -1.3022    1.7668   15.4659 C.2     1  LIG1       -0.0033
      8 H          -0.9012    1.3812   16.2352 H       1  LIG1        0.0718
      9 C          -0.7822    2.9094   15.0114 C.2     1  LIG1       -0.0034
     10 H          -0.0645    3.2901   15.5027 H       1  LIG1        0.0718
     11 C          -1.2221    3.6012   13.8421 C.1     1  LIG1       -0.0731
     12 C          -1.5105    4.1908   12.8390 C.1     1  LIG1       -0.0905
     13 C          -1.7662    4.9216   11.5902 C.3     1  LIG1        0.0583
     14 H          -2.7551    4.9926   11.4608 H       1  LIG1        0.0470
     15 C          -1.1812    6.3308   11.6432 C.3     1  LIG1        0.1174
     16 H          -1.5142    6.8389   12.4374 H       1  LIG1        0.0746
     17 O           0.2892    6.2236   11.6433 O.3     1  LIG1       -0.4599
     18 C           0.7168    6.2296   10.3636 C.2     1  LIG1        0.3110
     19 C          -0.4617    6.3686    9.4369 C.3     1  LIG1        0.0659
     20 H          -0.2477    6.8943    8.6147 H       1  LIG1        0.0418
     21 C          -1.0082    4.9477    9.1192 C.3     1  LIG1        0.0105
     22 H          -1.9139    5.0561    8.7103 H       1  LIG1        0.0344
     23 C          -0.1224    4.2119    8.1029 C.3     1  LIG1        0.1194
     24 H           0.7736    4.0364    8.5103 H       1  LIG1        0.0734
     25 C          -0.7330    2.9396    7.7028 C.1     1  LIG1       -0.0660
     26 C          -1.2835    1.9415    7.3321 C.1     1  LIG1       -0.0709
     27 C          -1.9022    0.7783    6.8100 C.2     1  LIG1       -0.0033
     28 H          -1.4747    0.3422    6.0819 H       1  LIG1        0.0718
     29 C          -3.0413    0.2458    7.2630 C.2     1  LIG1       -0.0034
     30 H          -3.3857   -0.5013    6.7879 H       1  LIG1        0.0718
     31 C          -3.7853    0.6899    8.3853 C.1     1  LIG1       -0.0731
     32 C          -4.4543    0.9905    9.3384 C.1     1  LIG1       -0.0905
     33 C          -5.2794    1.1934   10.5430 C.3     1  LIG1        0.0583
     34 H          -5.4940    2.1668   10.6180 H       1  LIG1        0.0470
     35 C          -6.5989    0.4122   10.4312 C.3     1  LIG1        0.1174
     36 H          -7.1014    0.6564    9.6017 H       1  LIG1        0.0746
     37 O          -6.2764   -1.0203   10.4664 O.3     1  LIG1       -0.4599
     38 C          -6.2687   -1.4187   11.7579 C.2     1  LIG1        0.3110
     39 C          -6.6423   -0.2582   12.6448 C.3     1  LIG1        0.0659
     40 H          -7.1800   -0.5424   13.4391 H       1  LIG1        0.0418
     41 C          -4.4901    0.7706   11.8006 C.3     1  LIG1       -0.0290
     42 H          -3.9833   -0.0540   11.5932 H       1  LIG1        0.0282
     43 H          -3.8335    1.4799   12.0153 H       1  LIG1        0.0282
     44 C          -7.4484    0.5956   11.6711 C.3     1  LIG1       -0.0012
     45 H          -8.3663    0.2463   11.5461 H       1  LIG1        0.0309
     46 H          -7.4882    1.5424   11.9565 H       1  LIG1        0.0309
     47 C          -1.1709    4.1324   10.3974 C.3     1  LIG1       -0.0290
     48 H          -0.2846    3.7777   10.6621 H       1  LIG1        0.0282
     49 H          -1.7575    3.3572   10.2062 H       1  LIG1        0.0282
     50 C          -1.4580    7.0755   10.3459 C.3     1  LIG1       -0.0012
     51 H          -1.2622    8.0429   10.4268 H       1  LIG1        0.0309
     52 H          -2.3909    6.9498   10.0400 H       1  LIG1        0.0309
     53 O          -5.4357   -0.4561   15.2176 O.3     1  LIG1       -0.3790
     54 H          -5.0480   -0.9728   15.7718 H       1  LIG1        0.2111
     55 O           1.8897    6.1169   10.1042 O.2     1  LIG1       -0.2505
     56 O           0.0306    5.0790    6.9794 O.3     1  LIG1       -0.3790
     57 H           0.5014    4.7237    6.3908 H       1  LIG1        0.2111
     58 O          -5.9409   -2.5475   12.0515 O.2     1  LIG1       -0.2505
@<TRIPOS>BOND
     1    28    27    1
     2    57    56    1
     3    30    29    1
     4    27    29    2
     5    27    26    1
     6    56    23    1
     7    29    31    1
     8    26    25    3
     9    25    23    1
    10    23    24    1
    11    23    21    1
    12    31    32    3
    13    20    19    1
    14    22    21    1
    15    21    19    1
    16    21    47    1
    17    32    33    1
    18    19    50    1
    19    19    18    1
    20    36    35    1
    21    52    50    1
    22    55    18    2
    23    49    47    1
    24    50    51    1
    25    50    15    1
    26    18    17    1
    27    47    48    1
    28    47    13    1
    29    35    37    1
    30    35    33    1
    31    35    44    1
    32    37    38    1
    33    33    34    1
    34    33    41    1
    35    14    13    1
    36    45    44    1
    37    13    15    1
    38    13    12    1
    39    42    41    1
    40    15    17    1
    41    15    16    1
    42    44    46    1
    43    44    39    1
    44    38    58    2
    45    38    39    1
    46    41    43    1
    47    41     1    1
    48    39     1    1
    49    39    40    1
    50    12    11    3
    51     1     2    1
    52     1     3    1
    53     4     3    1
    54    11     9    1
    55     3     5    1
    56     3    53    1
    57     5     6    3
    58     6     7    1
    59     9     7    2
    60     9    10    1
    61    53    54    1
    62     7     8    1
