@<TRIPOS>MOLECULE
?
 85 90 0 0 0
SMALL
GASTEIGER

@<TRIPOS>ATOM
      1 O           4.9143    3.3065   -2.8727 O.2     1  LIG1       -0.2699
      2 O           2.0124    4.0552    0.2931 O.3     1  LIG1       -0.3661
      3 H           2.6981    4.4110    0.5780 H       1  LIG1        0.2124
      4 O          -0.8910    1.7643   -1.5719 O.2     1  LIG1       -0.2736
      5 O          -1.0032   -1.9052   -3.3081 O.2     1  LIG1       -0.2735
      6 O           2.3073    1.7569   -4.0127 O.2     1  LIG1       -0.2738
      7 N           2.8736    3.2930   -1.7963 N.am    1  LIG1       -0.2554
      8 N           0.1098    3.4548   -2.6844 N.am    1  LIG1       -0.2909
      9 N          -1.4825    0.2591   -3.6931 N.am    1  LIG1       -0.2843
     10 N           1.5179    0.0462   -2.7658 N.am    1  LIG1       -0.2846
     11 C           3.9712    3.8841   -2.3636 C.2     1  LIG1        0.2498
     12 C           3.7578    5.3406   -2.2113 C.ar    1  LIG1        0.0445
     13 C           4.5314    6.3980   -2.6529 C.ar    1  LIG1       -0.0492
     14 H           5.3162    6.2487   -3.1282 H       1  LIG1        0.0625
     15 C           4.1097    7.6772   -2.3677 C.ar    1  LIG1       -0.0610
     16 H           4.6062    8.4062   -2.6619 H       1  LIG1        0.0618
     17 C           2.9576    7.8810   -1.6510 C.ar    1  LIG1       -0.0613
     18 H           2.6919    8.7513   -1.4596 H       1  LIG1        0.0618
     19 C           2.1882    6.8362   -1.2078 C.ar    1  LIG1       -0.0535
     20 H           1.4106    6.9883   -0.7213 H       1  LIG1        0.0622
     21 C           2.6006    5.5528   -1.5056 C.ar    1  LIG1        0.0160
     22 C           1.9820    4.2321   -1.1065 C.3     1  LIG1        0.1787
     23 C           0.4740    4.0745   -1.4099 C.3     1  LIG1        0.0655
     24 H           0.1539    3.4821   -0.7165 H       1  LIG1        0.0513
     25 H           0.0821    4.9787   -1.3722 H       1  LIG1        0.0513
     26 C          -0.6011    2.3068   -2.6422 C.2     1  LIG1        0.2363
     27 C          -1.0634    1.6457   -3.9559 C.3     1  LIG1        0.1000
     28 H          -0.3078    1.6178   -4.5635 H       1  LIG1        0.0594
     29 C          -0.6176   -0.7798   -3.6234 C.2     1  LIG1        0.2367
     30 C           0.8689   -0.5785   -3.9364 C.3     1  LIG1        0.1000
     31 H           0.9951    0.0720   -4.6558 H       1  LIG1        0.0594
     32 C           2.1779    1.2231   -2.9276 C.2     1  LIG1        0.2340
     33 C           2.7627    1.8585   -1.6673 C.3     1  LIG1        0.0945
     34 H           2.1749    1.7098   -0.8428 H       1  LIG1        0.0561
     35 H           3.6111    1.5112   -1.5204 H       1  LIG1        0.0561
     36 C          -2.1923    2.4468   -4.5983 C.3     1  LIG1       -0.0378
     37 H          -1.8261    3.3076   -4.9594 H       1  LIG1        0.0252
     38 H          -2.9033    2.6479   -3.9806 H       1  LIG1        0.0252
     39 H          -2.6365    1.9470   -5.2921 H       1  LIG1        0.0252
     40 C           1.5009   -1.9047   -4.3197 C.3     1  LIG1       -0.0378
     41 H           1.4157   -2.5453   -3.5313 H       1  LIG1        0.0252
     42 H           2.3903   -1.8523   -4.4348 H       1  LIG1        0.0252
     43 H           0.9130   -2.2961   -5.0566 H       1  LIG1        0.0252
     44 C           0.5406    4.1403   -3.9070 C.3     1  LIG1        0.0399
     45 H           0.2565    3.5701   -4.6850 H       1  LIG1        0.0514
     46 H           1.5183    4.1778   -3.8956 H       1  LIG1        0.0514
     47 C          -0.0267    5.5382   -4.0533 C.ar    1  LIG1       -0.0301
     48 C          -1.3244    5.8547   -3.7162 C.ar    1  LIG1       -0.0571
     49 H          -1.8835    5.1999   -3.3637 H       1  LIG1        0.0621
     50 C          -1.8076    7.1495   -3.8993 C.ar    1  LIG1       -0.0615
     51 H          -2.6889    7.3534   -3.6819 H       1  LIG1        0.0618
     52 C          -0.9879    8.1143   -4.3945 C.ar    1  LIG1       -0.0617
     53 H          -1.3101    8.9779   -4.5174 H       1  LIG1        0.0618
     54 C           0.2955    7.8190   -4.7085 C.ar    1  LIG1       -0.0615
     55 H           0.8535    8.4875   -5.0347 H       1  LIG1        0.0618
     56 C           0.7899    6.5269   -4.5494 C.ar    1  LIG1       -0.0571
     57 H           1.6701    6.3326   -4.7773 H       1  LIG1        0.0621
     58 C          -2.8694    0.0036   -3.2185 C.3     1  LIG1        0.0405
     59 H          -3.1803    0.8316   -2.8124 H       1  LIG1        0.0514
     60 H          -2.7802   -0.6650   -2.5356 H       1  LIG1        0.0514
     61 C          -3.7958   -0.4796   -4.3105 C.ar    1  LIG1       -0.0301
     62 C          -4.9048    0.2532   -4.6548 C.ar    1  LIG1       -0.0571
     63 H          -5.0710    1.0608   -4.2235 H       1  LIG1        0.0621
     64 C          -5.7747   -0.1866   -5.6283 C.ar    1  LIG1       -0.0615
     65 H          -6.5195    0.3238   -5.8483 H       1  LIG1        0.0618
     66 C          -5.5460   -1.3726   -6.2714 C.ar    1  LIG1       -0.0617
     67 H          -6.1389   -1.6724   -6.9218 H       1  LIG1        0.0618
     68 C          -4.4452   -2.1122   -5.9544 C.ar    1  LIG1       -0.0615
     69 H          -4.2780   -2.9118   -6.3996 H       1  LIG1        0.0618
     70 C          -3.5783   -1.6752   -4.9728 C.ar    1  LIG1       -0.0571
     71 H          -2.8366   -2.1922   -4.7530 H       1  LIG1        0.0621
     72 C           1.3685   -0.6261   -1.4691 C.3     1  LIG1        0.0405
     73 H           0.6873   -1.2900   -1.6467 H       1  LIG1        0.0514
     74 H           0.9951   -0.0173   -0.7893 H       1  LIG1        0.0514
     75 C           2.6140   -1.2842   -0.9275 C.ar    1  LIG1       -0.0301
     76 C           2.5678   -1.7869    0.3701 C.ar    1  LIG1       -0.0571
     77 H           1.8025   -1.6644    0.8840 H       1  LIG1        0.0621
     78 C           3.6419   -2.4627    0.8984 C.ar    1  LIG1       -0.0615
     79 H           3.5947   -2.7985    1.7632 H       1  LIG1        0.0618
     80 C           4.7714   -2.6442    0.1656 C.ar    1  LIG1       -0.0617
     81 H           5.4936   -3.1050    0.5270 H       1  LIG1        0.0618
     82 C           4.8432   -2.1458   -1.1094 C.ar    1  LIG1       -0.0615
     83 H           5.6198   -2.2575   -1.6078 H       1  LIG1        0.0618
     84 C           3.7660   -1.4803   -1.6518 C.ar    1  LIG1       -0.0571
     85 H           3.8184   -1.1580   -2.5234 H       1  LIG1        0.0621
@<TRIPOS>BOND
     1    67    66    1
     2    69    68    1
     3    66    68   ar
     4    66    64   ar
     5    68    70   ar
     6    65    64    1
     7    64    62   ar
     8    39    36    1
     9    43    40    1
    10    55    54    1
    11    70    71    1
    12    70    61   ar
    13    37    36    1
    14    57    56    1
    15    54    56   ar
    16    54    52   ar
    17    45    44    1
    18    31    30    1
    19    62    61   ar
    20    62    63    1
    21    36    38    1
    22    36    27    1
    23    28    27    1
    24    56    47   ar
    25    53    52    1
    26    42    40    1
    27    52    50   ar
    28    40    30    1
    29    40    41    1
    30    61    58    1
    31    47    44    1
    32    47    48   ar
    33     6    32    2
    34    27     9    1
    35    27    26    1
    36    30    29    1
    37    30    10    1
    38    44    46    1
    39    44     8    1
    40    50    48   ar
    41    50    51    1
    42    48    49    1
    43     9    29   am
    44     9    58    1
    45    29     5    2
    46    58    59    1
    47    58    60    1
    48    14    13    1
    49    32    10   am
    50    32    33    1
    51     1    11    2
    52    10    72    1
    53     8    26   am
    54     8    23    1
    55    16    15    1
    56    13    15   ar
    57    13    12   ar
    58    26     4    2
    59    85    84    1
    60    15    17   ar
    61    11    12    1
    62    11     7   am
    63    12    21   ar
    64     7    33    1
    65     7    22    1
    66    33    35    1
    67    33    34    1
    68    84    82   ar
    69    84    75   ar
    70    17    18    1
    71    17    19   ar
    72    73    72    1
    73    83    82    1
    74    21    19   ar
    75    21    22    1
    76    72    75    1
    77    72    74    1
    78    23    25    1
    79    23    22    1
    80    23    24    1
    81    19    20    1
    82    82    80   ar
    83    22     2    1
    84    75    76   ar
    85    80    81    1
    86    80    78   ar
    87     2     3    1
    88    76    77    1
    89    76    78   ar
    90    78    79    1
