@<TRIPOS>MOLECULE
?
 62 66 0 0 0
SMALL
GASTEIGER

@<TRIPOS>ATOM
      1 O          -2.6016   -2.8776   11.6480 O.2     1  LIG1       -0.2699
      2 O           1.2633   -0.8469   10.7152 O.3     1  LIG1       -0.3661
      3 H           1.1450   -0.1745   11.2214 H       1  LIG1        0.2124
      4 O          -2.0735   -3.6158    7.3302 O.2     1  LIG1       -0.2736
      5 O          -0.8812   -5.6441   11.6202 O.2     1  LIG1       -0.2738
      6 N          -0.5931   -2.3489   10.6658 N.am    1  LIG1       -0.2554
      7 N          -0.5983   -1.9682    7.7787 N.am    1  LIG1       -0.2909
      8 N          -0.6772   -5.1121    9.4408 N.am    1  LIG1       -0.2846
      9 C          -1.8761   -2.0870   11.0831 C.2     1  LIG1        0.2498
     10 C          -2.1423   -0.6690   10.7313 C.ar    1  LIG1        0.0445
     11 C          -3.2764    0.0913   10.9420 C.ar    1  LIG1       -0.0492
     12 H          -4.0434   -0.2792   11.3173 H       1  LIG1        0.0625
     13 C          -3.2286    1.4240   10.5735 C.ar    1  LIG1       -0.0610
     14 H          -3.9717    1.9656   10.7115 H       1  LIG1        0.0618
     15 C          -2.0869    1.9614   10.0003 C.ar    1  LIG1       -0.0613
     16 H          -2.0782    2.8590    9.7556 H       1  LIG1        0.0618
     17 C          -0.9636    1.1902    9.7866 C.ar    1  LIG1       -0.0535
     18 H          -0.1999    1.5537    9.4007 H       1  LIG1        0.0622
     19 C          -1.0081   -0.1378   10.1627 C.ar    1  LIG1        0.0160
     20 C           0.0776   -1.1824   10.0595 C.3     1  LIG1        0.1787
     21 C           0.4866   -1.4460    8.5994 C.3     1  LIG1        0.0655
     22 H           0.8050   -0.6170    8.2082 H       1  LIG1        0.0513
     23 H           1.2211   -2.0786    8.5887 H       1  LIG1        0.0513
     24 C          -1.0179   -3.2513    7.8316 C.2     1  LIG1        0.2363
     25 C          -0.0467   -4.2802    8.4065 C.3     1  LIG1        0.1000
     26 H           0.6964   -3.7943    8.8221 H       1  LIG1        0.0594
     27 C          -0.5280   -4.8519   10.7574 C.2     1  LIG1        0.2340
     28 C           0.1043   -3.5219   11.1734 C.3     1  LIG1        0.0945
     29 H           0.1260   -3.4760   12.1421 H       1  LIG1        0.0561
     30 H           1.0212   -3.4997   10.8569 H       1  LIG1        0.0561
     31 C          -1.3210   -1.0110    6.9317 C.3     1  LIG1        0.0399
     32 H          -1.7458   -0.3420    7.4921 H       1  LIG1        0.0514
     33 H          -2.0174   -1.4770    6.4419 H       1  LIG1        0.0514
     34 C          -0.3987   -0.3332    5.9603 C.ar    1  LIG1       -0.0301
     35 C          -0.3976    1.0424    5.8388 C.ar    1  LIG1       -0.0571
     36 H          -0.9603    1.5509    6.3764 H       1  LIG1        0.0621
     37 C           0.4237    1.6710    4.9331 C.ar    1  LIG1       -0.0615
     38 H           0.4085    2.5979    4.8610 H       1  LIG1        0.0618
     39 C           1.2634    0.9437    4.1372 C.ar    1  LIG1       -0.0617
     40 H           1.8131    1.3723    3.5215 H       1  LIG1        0.0618
     41 C           1.2895   -0.4160    4.2531 C.ar    1  LIG1       -0.0615
     42 H           1.8663   -0.9130    3.7181 H       1  LIG1        0.0618
     43 C           0.4671   -1.0610    5.1567 C.ar    1  LIG1       -0.0571
     44 H           0.4932   -1.9879    5.2271 H       1  LIG1        0.0621
     45 C           0.5160   -5.0923    7.2509 C.3     1  LIG1       -0.0378
     46 H           1.1418   -5.7375    7.5880 H       1  LIG1        0.0252
     47 H           0.9603   -4.5063    6.6337 H       1  LIG1        0.0252
     48 H          -0.1999   -5.5463    6.8016 H       1  LIG1        0.0252
     49 C          -1.5231   -6.2430    9.0481 C.3     1  LIG1        0.0405
     50 H          -2.0217   -5.9902    8.2562 H       1  LIG1        0.0514
     51 H          -2.1651   -6.4034    9.7572 H       1  LIG1        0.0514
     52 C          -0.8028   -7.5319    8.7620 C.ar    1  LIG1       -0.0301
     53 C          -1.2775   -8.3336    7.7234 C.ar    1  LIG1       -0.0571
     54 H          -2.0239   -8.0591    7.2428 H       1  LIG1        0.0621
     55 C          -0.6692   -9.5109    7.3978 C.ar    1  LIG1       -0.0615
     56 H          -0.9951  -10.0288    6.6961 H       1  LIG1        0.0618
     57 C           0.4128   -9.9213    8.1027 C.ar    1  LIG1       -0.0617
     58 H           0.8289  -10.7226    7.8806 H       1  LIG1        0.0618
     59 C           0.9082   -9.1633    9.1530 C.ar    1  LIG1       -0.0615
     60 H           1.6491   -9.4509    9.6357 H       1  LIG1        0.0618
     61 C           0.2770   -7.9634    9.4730 C.ar    1  LIG1       -0.0571
     62 H           0.5975   -7.4504   10.1792 H       1  LIG1        0.0621
@<TRIPOS>BOND
     1    40    39    1
     2    42    41    1
     3    39    41   ar
     4    39    37   ar
     5    41    43   ar
     6    38    37    1
     7    37    35   ar
     8    43    44    1
     9    43    34   ar
    10    35    34   ar
    11    35    36    1
    12    34    31    1
    13    33    31    1
    14    47    45    1
    15    56    55    1
    16    48    45    1
    17    31    32    1
    18    31     7    1
    19    54    53    1
    20    45    46    1
    21    45    25    1
    22     4    24    2
    23    55    53   ar
    24    55    57   ar
    25    53    52   ar
    26     7    24   am
    27     7    21    1
    28    24    25    1
    29    58    57    1
    30    57    59   ar
    31    22    21    1
    32    50    49    1
    33    25    26    1
    34    25     8    1
    35    23    21    1
    36    21    20    1
    37    52    49    1
    38    52    61   ar
    39    49     8    1
    40    49    51    1
    41    59    61   ar
    42    59    60    1
    43    18    17    1
    44     8    27   am
    45    61    62    1
    46    16    15    1
    47    17    15   ar
    48    17    19   ar
    49    15    13   ar
    50    20    19    1
    51    20     6    1
    52    20     2    1
    53    19    10   ar
    54    13    14    1
    55    13    11   ar
    56     6     9   am
    57     6    28    1
    58     2     3    1
    59    10    11   ar
    60    10     9    1
    61    27    28    1
    62    27     5    2
    63    30    28    1
    64    11    12    1
    65     9     1    2
    66    28    29    1
