@<TRIPOS>MOLECULE
?
 38 38 0 0 0
SMALL
GASTEIGER

@<TRIPOS>ATOM
      1 I           0.0552    3.6934    9.1946 I       1  LIG1       -0.0525
      2 O           0.4367   -0.8166    6.5530 O.2     1  LIG1       -0.2492
      3 O           2.3914   -1.8693    6.5584 O.3     1  LIG1       -0.4669
      4 O           4.0660   -0.4899    9.2561 O.2     1  LIG1       -0.2492
      5 O           1.9886   -1.1758    9.6078 O.3     1  LIG1       -0.4669
      6 C           1.5534    2.3902    8.5411 C.2     1  LIG1       -0.0255
      7 C           1.3035    1.1909    8.2180 C.2     1  LIG1       -0.0505
      8 C           2.3133    0.1675    7.7170 C.3     1  LIG1        0.1858
      9 C           3.4562    0.7705    6.8636 C.3     1  LIG1       -0.0047
     10 C           2.9735    1.3551    5.5787 C.2     1  LIG1       -0.0816
     11 C           3.3692    0.9673    4.3813 C.2     1  LIG1       -0.0585
     12 C           2.9603    1.5100    3.0822 C.ar    1  LIG1       -0.0253
     13 C           3.4212    0.9238    1.9113 C.ar    1  LIG1       -0.0546
     14 C           3.0276    1.3969    0.6729 C.ar    1  LIG1       -0.0612
     15 C           2.1649    2.4564    0.5838 C.ar    1  LIG1       -0.0617
     16 C           1.6939    3.0401    1.7178 C.ar    1  LIG1       -0.0612
     17 C           2.0911    2.5736    2.9580 C.ar    1  LIG1       -0.0546
     18 C           1.5766   -0.8769    6.8908 C.2     1  LIG1        0.3282
     19 C           1.8169   -2.9069    5.7382 C.3     1  LIG1        0.0817
     20 C           2.9285   -0.5335    8.9414 C.2     1  LIG1        0.3282
     21 C           2.4249   -1.9262   10.7808 C.3     1  LIG1        0.0817
     22 H           2.4249    2.7553    8.4573 H       1  LIG1        0.0683
     23 H           0.4744    0.8877    8.3596 H       1  LIG1        0.0593
     24 H           4.0679    0.0754    6.6500 H       1  LIG1        0.0326
     25 H           3.8693    1.4321    7.4037 H       1  LIG1        0.0326
     26 H           2.3845    2.0602    5.6219 H       1  LIG1        0.0573
     27 H           3.9923    0.2931    4.3147 H       1  LIG1        0.0620
     28 H           3.9677    0.1926    1.9352 H       1  LIG1        0.0623
     29 H           3.3492    0.9715   -0.0605 H       1  LIG1        0.0618
     30 H           1.8626    2.7386   -0.2721 H       1  LIG1        0.0618
     31 H           1.1422    3.8022    1.6166 H       1  LIG1        0.0618
     32 H           1.6307    2.9815    3.7332 H       1  LIG1        0.0623
     33 H           0.9313   -3.1155    6.0290 H       1  LIG1        0.0661
     34 H           2.3898   -3.6682    5.7615 H       1  LIG1        0.0661
     35 H           1.7396   -2.4873    4.8893 H       1  LIG1        0.0661
     36 H           2.8115   -1.2981   11.4230 H       1  LIG1        0.0661
     37 H           1.5657   -2.1524   11.1881 H       1  LIG1        0.0661
     38 H           3.1981   -2.5292   10.6298 H       1  LIG1        0.0661
@<TRIPOS>BOND
     1    30    15    1
     2    29    14    1
     3    15    14   ar
     4    15    16   ar
     5    14    13   ar
     6    31    16    1
     7    16    17   ar
     8    13    28    1
     9    13    12   ar
    10    17    12   ar
    11    17    32    1
    12    12    11    1
    13    27    11    1
    14    11    10    2
    15    35    19    1
    16    10    26    1
    17    10     9    1
    18    19    34    1
    19    19    33    1
    20    19     3    1
    21     2    18    2
    22     3    18    1
    23    24     9    1
    24     9    25    1
    25     9     8    1
    26    18     8    1
    27     8     7    1
    28     8    20    1
    29     7    23    1
    30     7     6    2
    31    22     6    1
    32     6     1    1
    33    20     4    2
    34    20     5    1
    35     5    21    1
    36    38    21    1
    37    21    37    1
    38    21    36    1
