@<TRIPOS>MOLECULE
?
 56 59 0 0 0
SMALL
GASTEIGER

@<TRIPOS>ATOM
      1 O           0.9528   10.1138    1.5113 O.3     1  LIG1       -0.3616
      2 C           1.6951    8.9895    1.9866 C.3     1  LIG1        0.1210
      3 H           1.6819    8.2772    1.3001 H       1  LIG1        0.0684
      4 C           3.1319    9.4936    2.1635 C.3     1  LIG1        0.1359
      5 H           3.5814    9.0347    2.9177 H       1  LIG1        0.0764
      6 C           2.9536   10.9659    2.4494 C.3     1  LIG1        0.0167
      7 H           3.7098   11.4828    2.1022 H       1  LIG1        0.0328
      8 H           2.8752   11.1278    3.4127 H       1  LIG1        0.0328
      9 C           1.6612   11.3406    1.7276 C.3     1  LIG1        0.0971
     10 H           1.1216   11.9395    2.3029 H       1  LIG1        0.0631
     11 C           1.1430    8.4417    3.2867 C.ar    1  LIG1       -0.0154
     12 C           0.3566    9.1876    4.1504 C.ar    1  LIG1       -0.0560
     13 H           0.1296   10.0737    3.9310 H       1  LIG1        0.0621
     14 C          -0.0999    8.6250    5.3479 C.ar    1  LIG1       -0.0614
     15 H          -0.6252    9.1386    5.9343 H       1  LIG1        0.0618
     16 C           0.2114    7.3284    5.6744 C.ar    1  LIG1       -0.0617
     17 H          -0.1170    6.9503    6.4697 H       1  LIG1        0.0618
     18 C           1.0051    6.5877    4.8319 C.ar    1  LIG1       -0.0614
     19 H           1.2304    5.7035    5.0566 H       1  LIG1        0.0618
     20 C           1.4735    7.1447    3.6509 C.ar    1  LIG1       -0.0560
     21 H           2.0250    6.6343    3.0870 H       1  LIG1        0.0621
     22 C           1.8532   11.9792    0.3692 C.3     1  LIG1        0.1190
     23 H           2.4858   11.4547   -0.1648 H       1  LIG1        0.0724
     24 H           0.9994   12.0175   -0.1101 H       1  LIG1        0.0724
     25 O           2.3693   13.3203    0.5859 O.3     1  LIG1       -0.4585
     26 O           0.4844   14.2463   -0.2069 O.2     1  LIG1       -0.2450
     27 C           1.5502   14.3476    0.3275 C.2     1  LIG1        0.3393
     28 C           2.1270   15.6439    0.7904 C.ar    1  LIG1        0.0591
     29 C           1.4513   16.8119    0.4619 C.ar    1  LIG1       -0.0456
     30 H           0.6689   16.7708   -0.0569 H       1  LIG1        0.0626
     31 C           1.9251   18.0379    0.8957 C.ar    1  LIG1       -0.0307
     32 H           1.4823   18.8357    0.6673 H       1  LIG1        0.0640
     33 C           3.0654   18.0587    1.6721 C.ar    1  LIG1        0.1262
     34 C           3.7538   16.9167    2.0236 C.ar    1  LIG1       -0.0307
     35 H           4.5222   16.9634    2.5627 H       1  LIG1        0.0640
     36 C           3.2830   15.7013    1.5624 C.ar    1  LIG1       -0.0456
     37 H           3.7457   14.9093    1.7711 H       1  LIG1        0.0626
     38 N           3.5526   19.3535    2.1792 N.pl3   1  LIG1        0.0564
     39 O           3.0737   20.3717    1.6922 O.2     1  LIG1       -0.1261
     40 O           4.3929   19.3511    3.0659 O.2     1  LIG1       -0.1261
     41 O           3.9058    9.3698    0.9395 O.3     1  LIG1       -0.4548
     42 O           4.2254    7.1875    1.3959 O.2     1  LIG1       -0.2449
     43 C           4.4522    8.1627    0.7163 C.2     1  LIG1        0.3395
     44 C           5.3937    8.1698   -0.4389 C.ar    1  LIG1        0.0591
     45 C           5.8694    6.9432   -0.8969 C.ar    1  LIG1       -0.0456
     46 H           5.5751    6.1473   -0.4928 H       1  LIG1        0.0626
     47 C           6.7702    6.8916   -1.9416 C.ar    1  LIG1       -0.0307
     48 H           7.0958    6.0693   -2.2579 H       1  LIG1        0.0640
     49 C           7.1781    8.0787   -2.5073 C.ar    1  LIG1        0.1262
     50 C           6.7315    9.3122   -2.0747 C.ar    1  LIG1       -0.0307
     51 H           7.0342   10.1040   -2.4811 H       1  LIG1        0.0640
     52 C           5.8262    9.3534   -1.0267 C.ar    1  LIG1       -0.0456
     53 H           5.5046   10.1798   -0.7137 H       1  LIG1        0.0626
     54 N           8.1179    8.0289   -3.6423 N.pl3   1  LIG1        0.0564
     55 O           8.5821    6.9367   -3.9551 O.2     1  LIG1       -0.1261
     56 O           8.3728    9.0724   -4.2301 O.2     1  LIG1       -0.1261
@<TRIPOS>BOND
     1    56    54    2
     2    55    54    2
     3    54    49    1
     4    49    50   ar
     5    49    47   ar
     6    51    50    1
     7    48    47    1
     8    50    52   ar
     9    47    45   ar
    10    52    53    1
    11    52    44   ar
    12    45    46    1
    13    45    44   ar
    14    44    43    1
    15    26    27    2
    16    23    22    1
    17    24    22    1
    18    30    29    1
    19    27    25    1
    20    27    28    1
    21    22    25    1
    22    22     9    1
    23    29    28   ar
    24    29    31   ar
    25    32    31    1
    26    43    41    1
    27    43    42    2
    28    28    36   ar
    29    31    33   ar
    30    41     4    1
    31     3     2    1
    32     1     9    1
    33     1     2    1
    34    36    37    1
    35    36    34   ar
    36    33    34   ar
    37    33    38    1
    38    39    38    2
    39     9    10    1
    40     9     6    1
    41     2     4    1
    42     2    11    1
    43    34    35    1
    44     7     6    1
    45     4     6    1
    46     4     5    1
    47    38    40    2
    48     6     8    1
    49    21    20    1
    50    11    20   ar
    51    11    12   ar
    52    20    18   ar
    53    13    12    1
    54    12    14   ar
    55    18    19    1
    56    18    16   ar
    57    14    16   ar
    58    14    15    1
    59    16    17    1
