@<TRIPOS>MOLECULE
?
 38 37 0 0 0
SMALL
GASTEIGER

@<TRIPOS>ATOM
      1 S           3.5486    9.0935    3.4509 S.3     1  LIG1        0.1396
      2 O           2.3362    9.8613    3.1642 O.2     1  LIG1       -0.1397
      3 O           3.4096    8.2912    4.6611 O.3     1  LIG1       -0.0427
      4 O           4.7295    9.9545    3.4913 O.2     1  LIG1       -0.1397
      5 C           3.6057    5.7709    1.1315 C.ar    1  LIG1       -0.0335
      6 C           3.4807    6.6555    2.2413 C.ar    1  LIG1       -0.0302
      7 H           3.1780    6.3228    3.0785 H       1  LIG1        0.0640
      8 C           3.7920    7.9785    2.1107 C.ar    1  LIG1        0.1199
      9 C           4.0716    6.3001   -0.1235 C.ar    1  LIG1       -0.0140
     10 C           4.2809    8.5018    0.8849 C.ar    1  LIG1       -0.0337
     11 H           4.5141    9.4210    0.8193 H       1  LIG1        0.0637
     12 C           3.2743    4.4202    1.2157 C.3     1  LIG1       -0.0004
     13 H           2.9708    4.0707    2.0441 H       1  LIG1        0.0361
     14 C           4.4146    7.6902   -0.1926 C.ar    1  LIG1       -0.0519
     15 H           4.7417    8.0496   -1.0096 H       1  LIG1        0.0624
     16 C           7.3016    4.2761    0.2265 C.ar    2  LIG2       -0.0104
     17 C           7.1856    3.2098   -0.6914 C.ar    2  LIG2       -0.0351
     18 C           7.1152    4.0352    1.6179 C.ar    2  LIG2       -0.0351
     19 C           6.8402    2.7299    2.0455 C.ar    2  LIG2       -0.0577
     20 H           6.7350    2.5522    2.9730 H       2  LIG2        0.0621
     21 C           7.3858    3.5000   -2.0869 C.3     2  LIG2       -0.0005
     22 H           7.3150    2.7931   -2.7165 H       2  LIG2        0.0361
     23 C           6.8792    1.9342   -0.2158 C.ar    2  LIG2       -0.0577
     24 H           6.7789    1.2174   -0.8296 H       2  LIG2        0.0621
     25 C           6.7206    1.7002    1.1354 C.ar    2  LIG2       -0.0612
     26 H           6.5276    0.8215    1.4420 H       2  LIG2        0.0618
     27 C           7.2261    5.1449    2.5249 C.3     2  LIG2       -0.0005
     28 H           7.0954    5.0008    3.4551 H       2  LIG2        0.0361
     29 C           7.2247    8.1316    5.3833 C.cat   3  LIG3        0.3387
     30 N           7.3083    9.1892    4.5944 N.pl3   3  LIG3       -0.2920
     31 H           6.5768    9.6056    4.3385 H       3  LIG3        0.2545
     32 H           8.0955    9.4763    4.3261 H       3  LIG3        0.2545
     33 N           6.0451    7.6962    5.7901 N.pl3   3  LIG3       -0.2920
     34 H           5.9946    7.0070    6.3350 H       3  LIG3        0.2545
     35 H           5.3106    8.0960    5.5157 H       3  LIG3        0.2545
     36 N           8.3224    7.5254    5.8000 N.pl3   3  LIG3       -0.2920
     37 H           8.2651    6.8362    6.3454 H       3  LIG3        0.2545
     38 H           9.1110    7.8097    5.5323 H       3  LIG3        0.2545
@<TRIPOS>BOND
     1    22    21    1
     2    21    17    1
     3    15    14    1
     4    24    23    1
     5    17    23   ar
     6    17    16   ar
     7    23    25   ar
     8    14     9   ar
     9    14    10   ar
    10     9     5   ar
    11    16    18   ar
    12    11    10    1
    13    10     8   ar
    14     5    12    1
    15     5     6   ar
    16    25    26    1
    17    25    19   ar
    18    12    13    1
    19    18    19   ar
    20    18    27    1
    21    19    20    1
    22     8     6   ar
    23     8     1    1
    24     6     7    1
    25    27    28    1
    26     2     1    2
    27     1     4    2
    28     1     3    1
    29    32    30    1
    30    31    30    1
    31    30    29    2
    32    29    33    1
    33    29    36    1
    34    35    33    1
    35    38    36    1
    36    33    34    1
    37    36    37    1
