@<TRIPOS>MOLECULE
?
 81 80 0 0 0
SMALL
GASTEIGER

@<TRIPOS>ATOM
      1 P           0.4730   -5.3483    9.0356 P.3     1  LIG1        0.4008
      2 P           4.0964   -2.8224    7.5698 P.3     2  LIG2        0.3466
      3 P           0.4921   -2.3876    4.8291 P.3     1  LIG1        0.4101
      4 O           1.8147   -6.0089    9.0492 O.2     1  LIG1       -0.2508
      5 O           0.2129   -4.3555   10.1523 O.3     1  LIG1       -0.1362
      6 O          -0.7218   -6.3654    9.0510 O.3     1  LIG1       -0.3190
      7 H          -0.5898   -6.9460    8.5559 H       1  LIG1        0.2200
      8 O           4.6675   -4.1991    7.7134 O.3     2  LIG2       -0.1434
      9 O           4.4614   -1.9869    8.8544 O.3     2  LIG2       -0.3245
     10 H           4.5500   -1.1240    8.7174 H       2  LIG2        0.2196
     11 O           4.4342   -2.0518    6.3136 O.2     2  LIG2       -0.2597
     12 O           0.8294   -2.3385    3.3579 O.2     1  LIG1       -0.2502
     13 O           0.6577   -1.1304    5.6272 O.3     1  LIG1       -0.1358
     14 O          -0.9470   -2.9919    4.9766 O.3     1  LIG1       -0.3186
     15 H          -1.5293   -2.6328    5.4920 H       1  LIG1        0.2200
     16 O           8.9557    0.0820    9.1976 O.3     3  HOH3       -0.4105
     17 H           8.2795    0.7223    9.1538 H       0  HOH0        0.2052
     18 H           9.4224    0.2166    8.4562 H       0  HOH0        0.2052
     19 O           4.9018    0.6069    8.5817 O.3     4  HOH4       -0.4105
     20 H           4.3588    1.1156    8.6601 H       0  HOH0        0.2052
     21 H           5.6448    0.9701    8.8352 H       0  HOH0        0.2052
     22 O           6.1132    2.9423    4.1013 O.3     5  HOH5       -0.4105
     23 H           6.5825    3.6940    4.4002 H       0  HOH0        0.2052
     24 H           6.2204    2.3899    4.5799 H       0  HOH0        0.2052
     25 H           3.2277   -2.9366    7.6740 H       2  LIG2        0.1615
     26 N           1.6699   -4.0547    6.8986 N.4     1  LIG1        0.2629
     27 H           2.1034   -4.7632    6.9598 H       1  LIG1        0.2054
     28 N           6.2498   -1.2029   -1.1896 N.ar    6  LIG6       -0.2546
     29 N           3.0689   -1.5292    2.3785 N.pl3   6  LIG6       -0.3205
     30 H           2.2408   -1.7454    2.7437 H       6  LIG6        0.1516
     31 N           4.0376    5.2442   -0.9015 N.ar    7  LIG7       -0.2546
     32 N           2.1290    5.4132    3.4959 N.pl3   7  LIG7       -0.3205
     33 H           1.3976    5.3683    4.0605 H       7  LIG7        0.1516
     34 C           0.3265   -4.4883    7.4217 C.3     1  LIG1        0.0744
     35 H          -0.0992   -5.0943    6.7650 H       1  LIG1        0.0944
     36 H          -0.2553   -3.6938    7.5260 H       1  LIG1        0.0944
     37 C           2.2828   -2.9930    7.7651 C.3     1  LIG1        0.0110
     38 H           2.0836   -3.2008    8.7114 H       1  LIG1        0.0868
     39 H           1.8575   -2.1245    7.5532 H       1  LIG1        0.0868
     40 C           1.6232   -3.6922    5.4342 C.3     1  LIG1        0.1391
     41 H           2.1873   -4.1466    4.8200 H       1  LIG1        0.1046
     42 C           6.5239   -1.3734   -2.4807 C.ar    6  LIG6        0.0283
     43 H           7.3976   -1.1538   -2.7815 H       6  LIG6        0.0830
     44 C           5.6048   -1.8579   -3.4293 C.ar    6  LIG6       -0.0430
     45 H           5.8648   -1.9773   -4.3353 H       6  LIG6        0.0633
     46 C           4.3306   -2.1558   -3.0287 C.ar    6  LIG6       -0.0511
     47 H           3.6883   -2.4689   -3.6543 H       6  LIG6        0.0625
     48 C           3.9881   -1.9879   -1.6651 C.ar    6  LIG6        0.0008
     49 C           2.6684   -2.2652   -1.1665 C.ar    6  LIG6       -0.0508
     50 H           1.9971   -2.5688   -1.7667 H       6  LIG6        0.0625
     51 C           2.3614   -2.1017    0.1480 C.ar    6  LIG6       -0.0396
     52 H           1.4813   -2.2773    0.4606 H       6  LIG6        0.0636
     53 C           3.3742   -1.6634    1.0543 C.ar    6  LIG6        0.0368
     54 C           3.9660   -1.1010    3.2649 C.2     6  LIG6       -0.0095
     55 H           3.7142   -1.0182    4.1768 H       6  LIG6        0.0778
     56 C           5.2577   -0.7742    2.8866 C.2     6  LIG6       -0.0618
     57 H           5.8830   -0.4607    3.5290 H       6  LIG6        0.0591
     58 C           5.6250   -0.9106    1.5617 C.3     6  LIG6        0.0178
     59 H           6.5105   -0.7039    1.2866 H       6  LIG6        0.0402
     60 C           4.6750   -1.3598    0.6184 C.ar    6  LIG6        0.0074
     61 C           4.9902   -1.5206   -0.7866 C.ar    6  LIG6        0.0765
     62 C           3.8672    5.0075   -2.1992 C.ar    7  LIG7        0.0283
     63 H           4.6262    5.0819   -2.7664 H       7  LIG7        0.0830
     64 C           2.6425    4.6556   -2.7890 C.ar    7  LIG7       -0.0430
     65 H           2.5817    4.5037   -3.7253 H       7  LIG7        0.0633
     66 C           1.5387    4.5351   -1.9911 C.ar    7  LIG7       -0.0511
     67 H           0.7015    4.2837   -2.3632 H       7  LIG7        0.0625
     68 C           1.6599    4.7897   -0.6045 C.ar    7  LIG7        0.0008
     69 C           0.5494    4.6877    0.2964 C.ar    7  LIG7       -0.0508
     70 H          -0.3087    4.4724   -0.0498 H       7  LIG7        0.0625
     71 C           0.6921    4.8900    1.6325 C.ar    7  LIG7       -0.0396
     72 H          -0.0541    4.8074    2.2137 H       7  LIG7        0.0636
     73 C           1.9823    5.2301    2.1520 C.ar    7  LIG7        0.0368
     74 C           3.3000    5.7031    4.0551 C.2     7  LIG7       -0.0095
     75 H           3.3596    5.8134    4.9967 H       7  LIG7        0.0778
     76 C           4.4431    5.8469    3.2644 C.2     7  LIG7       -0.0618
     77 H           5.2813    6.0444    3.6649 H       7  LIG7        0.0591
     78 C           4.3421    5.6994    1.8980 C.3     7  LIG7        0.0178
     79 H           5.1083    5.8210    1.3500 H       7  LIG7        0.0402
     80 C           3.1032    5.3682    1.3134 C.ar    7  LIG7        0.0074
     81 C           2.9379    5.1376   -0.1139 C.ar    7  LIG7        0.0765
@<TRIPOS>BOND
     1    45    44    1
     2    65    64    1
     3    47    46    1
     4    44    46   ar
     5    44    42   ar
     6    46    48   ar
     7    64    62   ar
     8    64    66   ar
     9    43    42    1
    10    63    62    1
    11    42    28   ar
    12    67    66    1
    13    62    31   ar
    14    66    68   ar
    15    50    49    1
    16    48    49   ar
    17    48    61   ar
    18    28    61   ar
    19    49    51   ar
    20    31    81   ar
    21    61    60   ar
    22    68    81   ar
    23    68    69   ar
    24    81    80   ar
    25    70    69    1
    26    51    52    1
    27    51    53   ar
    28    69    71   ar
    29    60    53   ar
    30    60    58    1
    31    53    29    1
    32    59    58    1
    33    80    78    1
    34    80    73   ar
    35    79    78    1
    36    58    56    1
    37    71    73   ar
    38    71    72    1
    39    78    76    1
    40    73    32    1
    41    29    30    1
    42    29    54    1
    43    56    54    2
    44    56    57    1
    45    76    77    1
    46    76    74    2
    47    54    55    1
    48    12     3    2
    49    32    74    1
    50    32    33    1
    51    74    75    1
    52    22    23    1
    53    22    24    1
    54    41    40    1
    55     3    14    1
    56     3    40    1
    57     3    13    1
    58    14    15    1
    59    40    26    1
    60    11     2    2
    61    35    34    1
    62    26    27    1
    63    26    34    1
    64    26    37    1
    65    34    36    1
    66    34     1    1
    67    39    37    1
    68     2    25    1
    69     2     8    1
    70     2     9    1
    71    37    38    1
    72    18    16    1
    73     7     6    1
    74    19    20    1
    75    19    21    1
    76    10     9    1
    77     1     4    2
    78     1     6    1
    79     1     5    1
    80    17    16    1
