@<TRIPOS>MOLECULE
trans-bis(4-nitrophenyl)tetrafluorosulfurane
 16 16 0 0 0
SMALL
GASTEIGER

@<TRIPOS>ATOM
      1 S           1.7175    5.6850    4.5779 S.3     1  LIG1        0.1755
      2 C          -0.3976    5.6884    2.7605 C.ar    1  LIG1       -0.0422
      3 C          -0.4891    7.1074    0.8524 C.ar    1  LIG1        0.1263
      4 O          -0.6451    8.3945   -1.0685 O.2     1  LIG1       -0.1261
      5 C           0.8208    6.2603    3.0864 C.ar    1  LIG1        0.0600
      6 O          -2.2696    7.0335   -0.6318 O.2     1  LIG1       -0.1261
      7 F           3.1002    5.6361    3.7374 F       1  LIG1       -0.1376
      8 F           1.4235    4.1427    4.1531 F       1  LIG1       -0.1376
      9 N          -1.1952    7.5429   -0.3717 N.pl3   1  LIG1        0.0564
     10 C           0.7252    7.6827    1.1555 C.ar    1  LIG1       -0.0303
     11 C           1.3963    7.2563    2.2899 C.ar    1  LIG1       -0.0422
     12 C          -1.0690    6.1318    1.6270 C.ar    1  LIG1       -0.0303
     13 H          -0.7837    4.9005    3.3785 H       1  LIG1        0.0630
     14 H          -1.7651    5.8101    1.5656 H       1  LIG1        0.0641
     15 H           2.2532    7.5269    2.5545 H       1  LIG1        0.0630
     16 H           1.0364    8.4820    0.5585 H       1  LIG1        0.0641
@<TRIPOS>BOND
     1     4     9    2
     2     6     9    2
     3     9     3    1
     4    16    10    1
     5     3    10   ar
     6     3    12   ar
     7    10    11   ar
     8    14    12    1
     9    12     2   ar
    10    11    15    1
    11    11     5   ar
    12     2     5   ar
    13     2    13    1
    14     5     1    1
    15     7     1    1
    16     8     1    1
