@<TRIPOS>MOLECULE
(BEDT-TTF)2Br2(DIA)(TIE)
 32 32 0 0 0
SMALL
GASTEIGER

@<TRIPOS>ATOM
      1 I           7.5138   -5.7568    1.9713 I       1  LIG1       -0.0621
      2 I           9.9532   -8.3066    2.2361 I       1  LIG1       -0.0621
      3 I           8.3032   -1.7261   -0.0322 I       2  LIG2       -0.0736
      4 BR          5.9698   -3.8843   -0.3061 Br      1  LIG1        0.0000
      5 S           3.3808   -1.7545    1.4892 S.3     2  LIG2       -0.0721
      6 S           4.9120   -3.1809    3.5220 S.3     2  LIG2       -0.0721
      7 S           5.4279    0.7823    1.8282 S.3     2  LIG2       -0.0721
      8 S           6.8893   -0.7483    3.8422 S.3     2  LIG2       -0.0721
      9 S           1.4645   -4.0690    1.1324 S.3     2  LIG2       -0.1157
     10 S           3.1840   -5.6473    3.3026 S.3     2  LIG2       -0.1157
     11 S           7.2698    3.0969    1.8656 S.3     2  LIG2       -0.1157
     12 S           8.9350    1.2814    4.3701 S.3     2  LIG2       -0.1157
     13 C           4.6920   -1.7448    2.6177 C.2     2  LIG2        0.0717
     14 C           5.5479   -0.6625    2.7731 C.2     2  LIG2        0.0717
     15 C           2.8288   -3.3487    1.9227 C.2     2  LIG2        0.0662
     16 C           3.5465   -4.0000    2.8746 C.2     2  LIG2        0.0662
     17 C           6.8632    1.5316    2.4920 C.2     2  LIG2        0.0662
     18 C           7.5245    0.8195    3.4494 C.2     2  LIG2        0.0662
     19 C           2.1975   -5.6584    0.6560 C.3     2  LIG2        0.0082
     20 C           3.1363   -6.2986    1.6243 C.3     2  LIG2        0.0082
     21 C           8.9303    3.2754    2.4990 C.3     2  LIG2        0.0082
     22 C           9.4446    2.7517    3.5376 C.3     2  LIG2        0.0082
     23 C           8.5222   -7.1166    3.2737 C.3     1  LIG1        0.1242
     24 C           9.8148   -0.3783    0.0156 C.3     2  LIG2        0.0736
     25 H           1.4741   -6.2685    0.4951 H       2  LIG2        0.0388
     26 H           2.6664   -5.5263   -0.1624 H       2  LIG2        0.0388
     27 H           3.9979   -6.2392    1.2479 H       2  LIG2        0.0388
     28 H           2.8780   -7.2240    1.6735 H       2  LIG2        0.0388
     29 H           9.4811    2.9176    1.7727 H       2  LIG2        0.0388
     30 H           9.0726    4.2067    2.5318 H       2  LIG2        0.0388
     31 H           9.3160    3.4645    4.2124 H       2  LIG2        0.0388
     32 H          10.3608    2.6732    3.3838 H       2  LIG2        0.0388
@<TRIPOS>BOND
     1    26    19    1
     2     3    24    1
     3    25    19    1
     4    19     9    1
     5    19    20    1
     6     9    15    1
     7    27    20    1
     8     5    15    1
     9     5    13    1
    10    20    28    1
    11    20    10    1
    12    29    21    1
    13     7    17    1
    14     7    14    1
    15    11    17    1
    16    11    21    1
    17    15    16    2
    18     1    23    1
    19     2    23    1
    20    17    18    2
    21    21    30    1
    22    21    22    1
    23    13    14    1
    24    13     6    2
    25    14     8    2
    26    16    10    1
    27    16     6    1
    28    32    22    1
    29    18     8    1
    30    18    12    1
    31    22    31    1
    32    22    12    1
