@<TRIPOS>MOLECULE
?
 52 54 0 0 0
SMALL
GASTEIGER

@<TRIPOS>ATOM
      1 O           2.0772    5.0898    5.1743 O.3     1  LIG1       -0.3736
      2 O           6.4973    9.7976    2.5367 O.3     1  LIG1       -0.4914
      3 O           4.3363   10.7340    1.4554 O.3     1  LIG1       -0.4914
      4 N           5.0021    5.2266    4.7173 N.3     1  LIG1       -0.2961
      5 C           2.9812    5.3230    6.2510 C.3     1  LIG1        0.0636
      6 H           3.1649    4.4723    6.7012 H       1  LIG1        0.0575
      7 H           2.5549    5.9192    6.9013 H       1  LIG1        0.0575
      8 C           4.3031    5.9421    5.8027 C.3     1  LIG1        0.0336
      9 H           4.0986    6.8507    5.4662 H       1  LIG1        0.0485
     10 C           4.4288    5.3949    3.3674 C.3     1  LIG1        0.0248
     11 H           3.5452    4.9724    3.3444 H       1  LIG1        0.0476
     12 H           4.9983    4.9263    2.7221 H       1  LIG1        0.0476
     13 C           4.2898    6.8359    2.9376 C.ar    1  LIG1       -0.0220
     14 C           3.1191    7.3432    2.3718 C.ar    1  LIG1       -0.0095
     15 C           1.8670    6.5356    2.1798 C.ar    1  LIG1       -0.0121
     16 C           1.0864    6.0501    3.2404 C.ar    1  LIG1       -0.0142
     17 C           1.4627    6.2818    4.6772 C.3     1  LIG1        0.0733
     18 H           2.0865    7.0348    4.7439 H       1  LIG1        0.0610
     19 H           0.6644    6.4936    5.2044 H       1  LIG1        0.0610
     20 C           5.1586    3.7991    4.9584 C.3     1  LIG1       -0.0121
     21 H           5.5366    3.6596    5.8404 H       1  LIG1        0.0391
     22 H           5.7508    3.4213    4.2902 H       1  LIG1        0.0391
     23 H           4.2929    3.3655    4.9056 H       1  LIG1        0.0391
     24 C           5.2104    6.1115    7.0305 C.3     1  LIG1       -0.0381
     25 H           4.6894    6.5073    7.7607 H       1  LIG1        0.0278
     26 H           5.5158    5.2285    7.3262 H       1  LIG1        0.0278
     27 C           6.4158    6.9831    6.7548 C.3     1  LIG1       -0.0638
     28 H           6.9510    7.0591    7.5606 H       1  LIG1        0.0230
     29 H           6.1207    7.8645    6.4778 H       1  LIG1        0.0230
     30 H           6.9480    6.5841    6.0487 H       1  LIG1        0.0230
     31 C           5.4296    7.6561    3.0085 C.ar    1  LIG1       -0.0113
     32 H           6.2151    7.3144    3.3951 H       1  LIG1        0.0659
     33 C           5.4263    8.9471    2.5257 C.ar    1  LIG1        0.1618
     34 C           4.2455    9.4599    1.9377 C.ar    1  LIG1        0.1621
     35 C           3.1184    8.6604    1.8782 C.ar    1  LIG1       -0.0083
     36 H           2.3313    9.0068    1.4981 H       1  LIG1        0.0661
     37 C           7.6757    9.3348    3.1797 C.3     1  LIG1        0.0790
     38 H           8.3650   10.0150    3.1196 H       1  LIG1        0.0660
     39 H           7.9833    8.5237    2.7468 H       1  LIG1        0.0660
     40 H           7.4842    9.1514    4.1120 H       1  LIG1        0.0660
     41 C           3.1766   11.2713    0.8290 C.3     1  LIG1        0.0790
     42 H           3.3608   12.1744    0.5277 H       1  LIG1        0.0660
     43 H           2.4431   11.2858    1.4639 H       1  LIG1        0.0660
     44 H           2.9350   10.7203    0.0685 H       1  LIG1        0.0660
     45 C           1.4478    6.2790    0.8690 C.ar    1  LIG1       -0.0537
     46 H           1.9473    6.6188    0.1480 H       1  LIG1        0.0624
     47 C           0.3051    5.5298    0.6167 C.ar    1  LIG1       -0.0612
     48 H           0.0444    5.3593   -0.2700 H       1  LIG1        0.0618
     49 C          -0.4492    5.0346    1.6607 C.ar    1  LIG1       -0.0614
     50 H          -1.2156    4.5184    1.4885 H       1  LIG1        0.0618
     51 C          -0.0669    5.3050    2.9686 C.ar    1  LIG1       -0.0558
     52 H          -0.5894    4.9829    3.6802 H       1  LIG1        0.0621
@<TRIPOS>BOND
     1    48    47    1
     2    44    41    1
     3    46    45    1
     4    42    41    1
     5    47    45   ar
     6    47    49   ar
     7    41     3    1
     8    41    43    1
     9    45    15   ar
    10     3    34    1
    11    50    49    1
    12    36    35    1
    13    49    51   ar
    14    35    34   ar
    15    35    14   ar
    16    34    33   ar
    17    15    14    1
    18    15    16   ar
    19    14    13   ar
    20    33     2    1
    21    33    31   ar
    22     2    37    1
    23    12    10    1
    24    39    37    1
    25    13    31   ar
    26    13    10    1
    27    51    16   ar
    28    51    52    1
    29    31    32    1
    30    38    37    1
    31    37    40    1
    32    16    17    1
    33    11    10    1
    34    10     4    1
    35    22    20    1
    36    17    18    1
    37    17     1    1
    38    17    19    1
    39     4    20    1
    40     4     8    1
    41    23    20    1
    42    20    21    1
    43     1     5    1
    44     9     8    1
    45     8     5    1
    46     8    24    1
    47    30    27    1
    48     5     6    1
    49     5     7    1
    50    29    27    1
    51    27    24    1
    52    27    28    1
    53    24    26    1
    54    24    25    1
