@<TRIPOS>MOLECULE
?
 224 234 0 0 0
SMALL
GASTEIGER

@<TRIPOS>ATOM
      1 N           4.8778   18.0233    7.6369 N.pl3   1  LIG1        0.0000
      2 B           3.8868   18.2557    6.4237 B       1  LIG1        0.0000
      3 C           5.7284   17.0321    7.8395 C.3     1  LIG1        0.0000
      4 H           5.7356   16.2251    7.3362 H       1  LIG1        0.0000
      5 F           3.0248   15.7592    7.6787 F       1  LIG1        0.0000
      6 N           6.5787   17.3025    8.8397 N.pl3   1  LIG1        0.0000
      7 B           7.8618   16.4337    9.1813 B       1  LIG1        0.0000
      8 C           5.2160   19.0154    8.5441 C.2     1  LIG1        0.0000
      9 H           4.7903   19.8604    8.6299 H       1  LIG1        0.0000
     10 F           2.4487   13.4521    6.4761 F       1  LIG1        0.0000
     11 C           6.2492   18.5744    9.2810 C.2     1  LIG1        0.0000
     12 H           6.6785   19.0499    9.9811 H       1  LIG1        0.0000
     13 F           2.6345   13.2201    3.7670 F       1  LIG1        0.0000
     14 C           3.5780   16.8425    5.6442 C.ar    1  LIG1        0.0000
     15 F           3.3789   15.3919    2.2922 F       1  LIG1        0.0000
     16 C           3.1562   15.7054    6.3309 C.ar    1  LIG1        0.0000
     17 F           3.8992   17.6987    3.4458 F       1  LIG1        0.0000
     18 C           2.8460   14.5090    5.7384 C.ar    1  LIG1        0.0000
     19 F           2.6457   18.1296    9.2247 F       1  LIG1        0.0000
     20 C           2.9290   14.3929    4.3731 C.ar    1  LIG1        0.0000
     21 F           0.1586   18.7423    9.8147 F       1  LIG1        0.0000
     22 C           3.3016   15.4794    3.6344 C.ar    1  LIG1        0.0000
     23 F          -1.5058   19.7914    7.9569 F       1  LIG1        0.0000
     24 C           3.5926   16.6700    4.2709 C.ar    1  LIG1        0.0000
     25 F          -0.6027   20.1328    5.3844 F       1  LIG1        0.0000
     26 C           2.4203   18.7769    6.9364 C.ar    1  LIG1        0.0000
     27 F           1.8610   19.3902    4.7257 F       1  LIG1        0.0000
     28 C           1.8954   18.6291    8.2146 C.ar    1  LIG1        0.0000
     29 F           6.3234   17.6559    4.9891 F       1  LIG1        0.0000
     30 C           0.5953   18.9547    8.5643 C.ar    1  LIG1        0.0000
     31 F           7.9228   19.3349    3.6911 F       1  LIG1        0.0000
     32 C          -0.2487   19.4785    7.6223 C.ar    1  LIG1        0.0000
     33 F           7.2668   21.9653    3.4528 F       1  LIG1        0.0000
     34 C           0.2104   19.6439    6.3383 C.ar    1  LIG1        0.0000
     35 F           5.0106   22.8942    4.6695 F       1  LIG1        0.0000
     36 C           1.4946   19.2711    6.0312 C.ar    1  LIG1        0.0000
     37 F           3.4474   21.2721    6.0395 F       1  LIG1        0.0000
     38 C           4.7530   19.3437    5.5300 C.ar    1  LIG1        0.0000
     39 F           5.0875   15.1168    9.7339 F       1  LIG1        0.0000
     40 C           5.9337   18.9496    4.9215 C.ar    1  LIG1        0.0000
     41 F           4.7506   12.7668   10.8846 F       1  LIG1        0.0000
     42 C           6.7844   19.7928    4.2329 C.ar    1  LIG1        0.0000
     43 F           6.8783   11.2320   11.5839 F       1  LIG1        0.0000
     44 C           6.4527   21.1226    4.1196 C.ar    1  LIG1        0.0000
     45 F           9.4113   12.1104   11.0107 F       1  LIG1        0.0000
     46 C           5.3248   21.5881    4.7261 C.ar    1  LIG1        0.0000
     47 F           9.7765   14.4159    9.7506 F       1  LIG1        0.0000
     48 C           4.5129   20.7024    5.4245 C.ar    1  LIG1        0.0000
     49 F           6.5825   16.9618   11.7054 F       1  LIG1        0.0000
     50 C           7.4666   14.9071    9.6656 C.ar    1  LIG1        0.0000
     51 F           7.7108   17.7452   13.9863 F       1  LIG1        0.0000
     52 C           6.2078   14.4088    9.9854 C.ar    1  LIG1        0.0000
     53 F          10.3965   18.1990   14.1070 F       1  LIG1        0.0000
     54 C           6.0099   13.1829   10.6022 C.ar    1  LIG1        0.0000
     55 F          11.9163   17.8481   11.8868 F       1  LIG1        0.0000
     56 C           7.0728   12.3977   10.9484 C.ar    1  LIG1        0.0000
     57 F          10.8235   17.1166    9.5881 F       1  LIG1        0.0000
     58 C           8.3414   12.8324   10.6419 C.ar    1  LIG1        0.0000
     59 F           9.0402   18.8432    8.1568 F       1  LIG1        0.0000
     60 C           8.4978   14.0438   10.0044 C.ar    1  LIG1        0.0000
     61 F          10.1130   19.2491    5.7501 F       1  LIG1        0.0000
     62 C           8.6209   17.0517   10.4996 C.ar    1  LIG1        0.0000
     63 F          10.3662   17.1847    3.9857 F       1  LIG1        0.0000
     64 C           7.9123   17.2185   11.6890 C.ar    1  LIG1        0.0000
     65 F           9.5135   14.7059    4.6934 F       1  LIG1        0.0000
     66 C           8.4638   17.6051   12.8868 C.ar    1  LIG1        0.0000
     67 F           8.4515   14.2602    7.0902 F       1  LIG1        0.0000
     68 C           9.8133   17.8358   12.9479 C.ar    1  LIG1        0.0000
     69 C          10.5804   17.6689   11.8221 C.ar    1  LIG1        0.0000
     70 C           9.9829   17.2940   10.6316 C.ar    1  LIG1        0.0000
     71 C           8.7129   16.5248    7.7712 C.ar    1  LIG1        0.0000
     72 C           9.1607   17.7735    7.3286 C.ar    1  LIG1        0.0000
     73 C           9.7093   18.0104    6.0989 C.ar    1  LIG1        0.0000
     74 C           9.8393   16.9756    5.2094 C.ar    1  LIG1        0.0000
     75 C           9.4123   15.7255    5.5738 C.ar    1  LIG1        0.0000
     76 C           8.8706   15.5250    6.8282 C.ar    1  LIG1        0.0000
     77 O          13.4849    4.5065    2.9781 O.3     2  LIG2        0.0000
     78 N          11.6389    2.7993    1.8669 N.4     3  LIG3        1.0000
     79 H          12.1955    3.2760    2.3446 H       3  LIG3        0.0000
     80 C          11.2692    3.5420    0.6166 C.3     3  LIG3        0.0000
     81 H          10.7693    4.3596    0.8659 H       3  LIG3        0.0000
     82 H          10.6680    2.9747    0.0720 H       3  LIG3        0.0000
     83 C          12.4595    3.9342   -0.2213 C.3     3  LIG3        0.0000
     84 H          12.1535    4.4137   -1.0201 H       3  LIG3        0.0000
     85 H          12.9494    3.1296   -0.4915 H       3  LIG3        0.0000
     86 H          13.0507    4.5145    0.3023 H       3  LIG3        0.0000
     87 C          12.3976    1.5140    1.6312 C.3     3  LIG3        0.0000
     88 H          12.6308    1.1135    2.5071 H       3  LIG3        0.0000
     89 H          13.2437    1.7223    1.1620 H       3  LIG3        0.0000
     90 C          11.6227    0.4987    0.8186 C.3     3  LIG3        0.0000
     91 H          12.1674   -0.3083    0.7013 H       3  LIG3        0.0000
     92 H          11.4073    0.8782   -0.0596 H       3  LIG3        0.0000
     93 H          10.7947    0.2681    1.2875 H       3  LIG3        0.0000
     94 C          10.4400    2.5809    2.7481 C.3     3  LIG3        0.0000
     95 H           9.7123    2.1814    2.2089 H       3  LIG3        0.0000
     96 H          10.6771    1.9343    3.4594 H       3  LIG3        0.0000
     97 C           9.9428    3.8378    3.3798 C.3     3  LIG3        0.0000
     98 H           9.1641    3.6360    3.9406 H       3  LIG3        0.0000
     99 H           9.6845    4.4745    2.6819 H       3  LIG3        0.0000
    100 H          10.6506    4.2274    3.9324 H       3  LIG3        0.0000
    101 C          14.8809    4.4270    2.7560 C.3     2  LIG2        0.0000
    102 H          15.0838    3.7624    2.0505 H       2  LIG2        0.0000
    103 H          15.3513    4.1631    3.5848 H       2  LIG2        0.0000
    104 C          15.2980    5.7869    2.3261 C.3     2  LIG2        0.0000
    105 H          16.2039    5.9974    2.6655 H       2  LIG2        0.0000
    106 H          15.3044    5.8548    1.3389 H       2  LIG2        0.0000
    107 C          14.3478    6.6593    2.8794 C.3     2  LIG2        0.0000
    108 H          14.1045    7.3597    2.2233 H       2  LIG2        0.0000
    109 H          14.7138    7.0974    3.6856 H       2  LIG2        0.0000
    110 C          13.1603    5.8513    3.2290 C.3     2  LIG2        0.0000
    111 H          12.9301    5.9780    4.1833 H       2  LIG2        0.0000
    112 H          12.3845    6.1263    2.6778 H       2  LIG2        0.0000
    113 N           6.8421   10.7399   17.9000 N.pl3   4  LIG4        0.0000
    114 B           5.8303   10.7333   16.6876 B       4  LIG4        0.0000
    115 C           7.7375    9.8210   18.2486 C.3     4  LIG4        0.0000
    116 H           7.7739    8.9492   17.8726 H       4  LIG4        0.0000
    117 F           5.0343    8.5301   18.3714 F       4  LIG4        0.0000
    118 N           8.5798   10.2627   19.1860 N.pl3   4  LIG4        0.0000
    119 B           9.8906    9.4883   19.6301 B       4  LIG4        0.0000
    120 C           7.1530   11.8615   18.6523 C.2     4  LIG4        0.0000
    121 H           6.7007   12.6966   18.6192 H       4  LIG4        0.0000
    122 F           4.4512    6.0328   17.6534 F       4  LIG4        0.0000
    123 C           8.1973   11.5714   19.4331 C.2     4  LIG4        0.0000
    124 H           8.6081   12.1630   20.0527 H       4  LIG4        0.0000
    125 F           4.6443    5.2664   15.0511 F       4  LIG4        0.0000
    126 C           5.5714    9.1892   16.1594 C.ar    4  LIG4        0.0000
    127 F           5.4103    7.0760   13.1737 F       4  LIG4        0.0000
    128 C           5.1581    8.2132   17.0605 C.ar    4  LIG4        0.0000
    129 F           5.9557    9.5756   13.8415 F       4  LIG4        0.0000
    130 C           4.8495    6.9194   16.7178 C.ar    4  LIG4        0.0000
    131 F           4.6386   11.1240   19.5196 F       4  LIG4        0.0000
    132 C           4.9372    6.5372   15.4034 C.ar    4  LIG4        0.0000
    133 F           2.2221   12.0075   20.0371 F       4  LIG4        0.0000
    134 C           5.3191    7.4490   14.4604 C.ar    4  LIG4        0.0000
    135 F           0.4874   12.6256   18.0390 F       4  LIG4        0.0000
    136 C           5.6191    8.7411   14.8470 C.ar    4  LIG4        0.0000
    137 F           1.2790   12.3134   15.4447 F       4  LIG4        0.0000
    138 C           4.3505   11.2780   17.1565 C.ar    4  LIG4        0.0000
    139 F           3.7179   11.4004   14.8765 F       4  LIG4        0.0000
    140 C           3.8697   11.4190   18.4417 C.ar    4  LIG4        0.0000
    141 F           8.3031   10.0534   15.3571 F       4  LIG4        0.0000
    142 C           2.5953   11.8750   18.7535 C.ar    4  LIG4        0.0000
    143 F           9.8507   11.6117   13.8646 F       4  LIG4        0.0000
    144 C           1.7218   12.1739   17.7468 C.ar    4  LIG4        0.0000
    145 F           9.0993   14.1836   13.3058 F       4  LIG4        0.0000
    146 C           2.1264   12.0136   16.4471 C.ar    4  LIG4        0.0000
    147 F           6.7310   15.1003   14.2557 F       4  LIG4        0.0000
    148 C           3.3956   11.5582   16.1862 C.ar    4  LIG4        0.0000
    149 F           5.1733   13.5941   15.7456 F       4  LIG4        0.0000
    150 C           6.6224   11.7076   15.6053 C.ar    4  LIG4        0.0000
    151 F           7.1798    8.2394   20.4984 F       4  LIG4        0.0000
    152 C           7.8496   11.2987   15.0922 C.ar    4  LIG4        0.0000
    153 F           6.9029    5.9143   21.6964 F       4  LIG4        0.0000
    154 C           8.6793   12.0833   14.3203 C.ar    4  LIG4        0.0000
    155 F           9.0861    4.3382   22.2264 F       4  LIG4        0.0000
    156 C           8.2986   13.3648   14.0297 C.ar    4  LIG4        0.0000
    157 F          11.5633    5.2102   21.5202 F       4  LIG4        0.0000
    158 C           7.0988   13.8336   14.4980 C.ar    4  LIG4        0.0000
    159 F          11.8701    7.5662   20.3189 F       4  LIG4        0.0000
    160 C           6.3074   13.0097   15.2816 C.ar    4  LIG4        0.0000
    161 F           8.6239   10.3797   22.0650 F       4  LIG4        0.0000
    162 C           9.5479    8.0264   20.3034 C.ar    4  LIG4        0.0000
    163 F           9.7509   11.5654   24.1645 F       4  LIG4        0.0000
    164 C           8.3165    7.5322   20.7037 C.ar    4  LIG4        0.0000
    165 F          12.4359   12.0312   24.1992 F       4  LIG4        0.0000
    166 C           8.1431    6.3104   21.3404 C.ar    4  LIG4        0.0000
    167 F          13.9458   11.3178   22.0545 F       4  LIG4        0.0000
    168 C           9.2293    5.5246   21.6131 C.ar    4  LIG4        0.0000
    169 F          12.8377   10.2586   19.9028 F       4  LIG4        0.0000
    170 C          10.4798    5.9696   21.2526 C.ar    4  LIG4        0.0000
    171 F          10.9740   11.7654   18.2607 F       4  LIG4        0.0000
    172 C          10.6012    7.1797   20.6288 C.ar    4  LIG4        0.0000
    173 F          12.0050   11.8665   15.8065 F       4  LIG4        0.0000
    174 C          10.6439   10.3141   20.8330 C.ar    4  LIG4        0.0000
    175 F          12.3528    9.5805   14.3565 F       4  LIG4        0.0000
    176 C           9.9458   10.6631   21.9856 C.ar    4  LIG4        0.0000
    177 F          11.6142    7.1956   15.4268 F       4  LIG4        0.0000
    178 C          10.5047   11.2618   23.0923 C.ar    4  LIG4        0.0000
    179 F          10.5507    7.0554   17.8399 F       4  LIG4        0.0000
    180 C          11.8519   11.4997   23.1121 C.ar    4  LIG4        0.0000
    181 C          12.6132   11.1396   22.0210 C.ar    4  LIG4        0.0000
    182 C          12.0047   10.5841   20.9122 C.ar    4  LIG4        0.0000
    183 C          10.7263    9.4071   18.2149 C.ar    4  LIG4        0.0000
    184 C          11.1344   10.5907   17.5942 C.ar    4  LIG4        0.0000
    185 C          11.6666   10.6792   16.3373 C.ar    4  LIG4        0.0000
    186 C          11.8405    9.5291   15.5992 C.ar    4  LIG4        0.0000
    187 C          11.4691    8.3287   16.1512 C.ar    4  LIG4        0.0000
    188 C          10.9264    8.2887   17.4132 C.ar    4  LIG4        0.0000
    189 O           2.3870    7.0607    8.3280 O.3     5  LIG5        0.0000
    190 N           4.6389    8.5428    8.9092 N.4     6  LIG6        1.0000
    191 H           3.7711    8.1445    8.6340 H       6  LIG6        0.0000
    192 C           5.7376    7.6876    8.3423 C.3     6  LIG6        0.0000
    193 H           6.6001    8.1621    8.4427 H       6  LIG6        0.0000
    194 H           5.7929    6.8468    8.8623 H       6  LIG6        0.0000
    195 C           5.5270    7.3553    6.8959 C.3     6  LIG6        0.0000
    196 H           6.2676    6.7976    6.5773 H       6  LIG6        0.0000
    197 H           5.4921    8.1836    6.3716 H       6  LIG6        0.0000
    198 H           4.6822    6.8682    6.7912 H       6  LIG6        0.0000
    199 C           4.6814    9.9431    8.3467 C.3     6  LIG6        0.0000
    200 H           5.2908   10.4852    8.9055 H       6  LIG6        0.0000
    201 H           5.0696    9.9021    7.4370 H       6  LIG6        0.0000
    202 C           3.4139   10.6197    8.2687 C.3     6  LIG6        0.0000
    203 H           3.5445   11.5146    7.8915 H       6  LIG6        0.0000
    204 H           3.0291   10.6974    9.1667 H       6  LIG6        0.0000
    205 H           2.8060   10.1085    7.6961 H       6  LIG6        0.0000
    206 C           4.7289    8.5085   10.4145 C.3     6  LIG6        0.0000
    207 H           4.8982    7.5737   10.6927 H       6  LIG6        0.0000
    208 H           5.5134    9.0461   10.6907 H       6  LIG6        0.0000
    209 C           3.5685    8.9943   11.1405 C.3     6  LIG6        0.0000
    210 H           3.7347    8.9250   12.1036 H       6  LIG6        0.0000
    211 H           2.7855    8.4543   10.9046 H       6  LIG6        0.0000
    212 H           3.4035    9.9303   10.9025 H       6  LIG6        0.0000
    213 C           1.4280    7.0679    7.2951 C.3     5  LIG5        0.0000
    214 H           1.8804    7.1697    6.4210 H       5  LIG5        0.0000
    215 H           0.8151    7.8355    7.4164 H       5  LIG5        0.0000
    216 C           0.6783    5.8487    7.3070 C.3     5  LIG5        0.0000
    217 H           0.8336    5.3437    6.4703 H       5  LIG5        0.0000
    218 H          -0.2909    6.0420    7.3815 H       5  LIG5        0.0000
    219 C           1.1350    5.0575    8.4771 C.3     5  LIG5        0.0000
    220 H           1.4244    4.1533    8.2000 H       5  LIG5        0.0000
    221 H           0.4121    4.9714    9.1482 H       5  LIG5        0.0000
    222 C           2.2822    5.8352    9.0268 C.3     5  LIG5        0.0000
    223 H           2.1389    6.0098    9.9893 H       5  LIG5        0.0000
    224 H           3.1182    5.3171    8.9240 H       5  LIG5        0.0000
@<TRIPOS>BOND
     1    84    83    1
     2    85    83    1
     3    83    86    1
     4    83    80    1
     5    92    90    1
     6    82    80    1
     7    80    81    1
     8    80    78    1
     9    91    90    1
    10    90    93    1
    11    90    87    1
    12    89    87    1
    13   106   104    1
    14    87    78    1
    15    87    88    1
    16    78    79    1
    17    78    94    1
    18   102   101    1
    19    95    94    1
    20   108   107    1
    21    15    22    1
    22   104   105    1
    23   104   101    1
    24   104   107    1
    25   112   110    1
    26    99    97    1
    27    94    97    1
    28    94    96    1
    29   101    77    1
    30   101   103    1
    31   107   110    1
    32   107   109    1
    33    77   110    1
    34   110   111    1
    35    97   100    1
    36    97    98    1
    37    17    24    1
    38    33    44    1
    39    22    24   ar
    40    22    20   ar
    41    31    42    1
    42    13    20    1
    43    63    74    1
    44    44    42   ar
    45    44    46   ar
    46    42    40   ar
    47    24    14   ar
    48    20    18   ar
    49    35    46    1
    50    65    75    1
    51    27    36    1
    52    46    48   ar
    53    40    29    1
    54    40    38   ar
    55    74    75   ar
    56    74    73   ar
    57    25    34    1
    58    48    38   ar
    59    48    37    1
    60    38     2    1
    61    75    76   ar
    62    14    16   ar
    63    14     2    1
    64    18    16   ar
    65    18    10    1
    66    61    73    1
    67    36    34   ar
    68    36    26   ar
    69    73    72   ar
    70    16     5    1
    71    34    32   ar
    72   197   195    1
    73   214   213    1
    74     2    26    1
    75     2     1    1
    76   217   216    1
    77   196   195    1
    78   198   195    1
    79    76    67    1
    80    76    71   ar
    81   195   192    1
    82    26    28   ar
    83   213   216    1
    84   213   215    1
    85   213   189    1
    86   216   218    1
    87   216   219    1
    88    72    71   ar
    89    72    59    1
    90     4     3    1
    91   201   199    1
    92    32    23    1
    93    32    30   ar
    94     1     3    1
    95     1     8    1
    96   205   202    1
    97    71     7    1
    98     3     6    1
    99   203   202    1
   100   220   219    1
   101    28    30   ar
   102    28    19    1
   103   202   199    1
   104   202   204    1
   105   189   222    1
   106   192   193    1
   107   192   194    1
   108   192   190    1
   109   199   200    1
   110   199   190    1
   111   219   222    1
   112   219   221    1
   113     8     9    1
   114     8    11    2
   115    30    21    1
   116   191   190    1
   117     6     7    1
   118     6    11    1
   119   190   206    1
   120   224   222    1
   121   222   223    1
   122     7    50    1
   123     7    62    1
   124    11    12    1
   125    57    70    1
   126    50    52   ar
   127    50    60   ar
   128    39    52    1
   129    47    60    1
   130    52    54   ar
   131    60    58   ar
   132   206   208    1
   133   206   207    1
   134   206   209    1
   135    62    70   ar
   136    62    64   ar
   137    54    41    1
   138    54    56   ar
   139    70    69   ar
   140    58    56   ar
   141    58    45    1
   142   212   209    1
   143   211   209    1
   144    56    43    1
   145   209   210    1
   146    64    49    1
   147    64    66   ar
   148    69    55    1
   149    69    68   ar
   150    66    68   ar
   151    66    51    1
   152    68    53    1
   153   127   134    1
   154   145   156    1
   155   129   136    1
   156   143   154    1
   157   156   154   ar
   158   156   158   ar
   159   147   158    1
   160   154   152   ar
   161   175   186    1
   162   134   136   ar
   163   134   132   ar
   164   158   160   ar
   165   136   126   ar
   166   139   148    1
   167   125   132    1
   168   152   141    1
   169   152   150   ar
   170   160   150   ar
   171   160   149    1
   172   132   130   ar
   173   177   187    1
   174   137   146    1
   175   186   187   ar
   176   186   185   ar
   177   150   114    1
   178   173   185    1
   179   187   188   ar
   180   126   114    1
   181   126   128   ar
   182   148   146   ar
   183   148   138   ar
   184   185   184   ar
   185   146   144   ar
   186   114   138    1
   187   114   113    1
   188   130   128   ar
   189   130   122    1
   190   128   117    1
   191   138   140   ar
   192   188   179    1
   193   188   183   ar
   194   184   183   ar
   195   184   171    1
   196   144   135    1
   197   144   142   ar
   198   116   115    1
   199   113   115    1
   200   113   120    1
   201   183   119    1
   202   115   118    1
   203   140   142   ar
   204   140   131    1
   205   121   120    1
   206   120   123    2
   207   142   133    1
   208   118   123    1
   209   118   119    1
   210   123   124    1
   211   119   162    1
   212   119   174    1
   213   169   182    1
   214   162   172   ar
   215   162   164   ar
   216   159   172    1
   217   151   164    1
   218   172   170   ar
   219   164   166   ar
   220   174   182   ar
   221   174   176   ar
   222   182   181   ar
   223   170   157    1
   224   170   168   ar
   225   166   168   ar
   226   166   153    1
   227   168   155    1
   228   176   161    1
   229   176   178   ar
   230   181   167    1
   231   181   180   ar
   232   178   180   ar
   233   178   163    1
   234   180   165    1
