@<TRIPOS>MOLECULE
?
 50 55 0 0 0
SMALL
GASTEIGER

@<TRIPOS>ATOM
      1 C          -0.0227    6.1825    1.1232 C.ar    1  LIG1       -0.0084
      2 C           0.0980    4.7931    1.5021 C.ar    1  LIG1       -0.0084
      3 C           0.8531    4.2647   -0.7780 C.ar    1  LIG1       -0.0173
      4 C          -0.4389    7.1393    2.1013 C.ar    1  LIG1       -0.0024
      5 C          -0.2507    4.3697    2.8049 C.ar    1  LIG1       -0.0024
      6 C          -0.8064    6.7093    3.3811 C.ar    1  LIG1       -0.0090
      7 C          -0.7393    5.3121    3.7349 C.ar    1  LIG1       -0.0090
      8 C          -0.1222    2.9401    3.2148 C.ar    1  LIG1       -0.0167
      9 C          -0.4869    8.5953    1.7589 C.ar    1  LIG1       -0.0167
     10 C           0.5710    3.8793    0.5216 C.ar    1  LIG1       -0.0457
     11 C           0.7040    5.6356   -1.1593 C.ar    1  LIG1       -0.0173
     12 C          -1.3055    7.6323    4.3732 C.ar    1  LIG1       -0.0534
     13 C           0.2896    6.5559   -0.1944 C.ar    1  LIG1       -0.0457
     14 C          -1.7562    7.1951    5.5724 C.ar    1  LIG1       -0.0611
     15 C           0.4240    9.4814    2.3264 C.ar    1  LIG1       -0.0540
     16 C          -1.2354    4.9128    5.0178 C.ar    1  LIG1       -0.0534
     17 C           0.9833    6.0096   -2.5007 C.ar    1  LIG1       -0.0540
     18 C           0.8313    2.5381    4.1363 C.ar    1  LIG1       -0.0540
     19 C          -1.4460    9.1032    0.9005 C.ar    1  LIG1       -0.0540
     20 C          -0.9788    1.9715    2.6789 C.ar    1  LIG1       -0.0540
     21 C          -0.5914   11.3310    1.1817 C.ar    1  LIG1       -0.0617
     22 C           1.5287    3.7220   -3.0494 C.ar    1  LIG1       -0.0612
     23 C           0.3628   10.8367    2.0390 C.ar    1  LIG1       -0.0612
     24 C          -1.4942   10.4620    0.5994 C.ar    1  LIG1       -0.0612
     25 C           1.2848    3.3267   -1.7764 C.ar    1  LIG1       -0.0540
     26 C           0.0429    0.2698    4.0363 C.ar    1  LIG1       -0.0617
     27 C          -1.7413    5.8179    5.8998 C.ar    1  LIG1       -0.0611
     28 C          -0.8880    0.6466    3.0954 C.ar    1  LIG1       -0.0612
     29 C           1.3818    5.0851   -3.4263 C.ar    1  LIG1       -0.0612
     30 C           0.9193    1.2144    4.5624 C.ar    1  LIG1       -0.0612
     31 H           0.6851    2.8935    0.8041 H       1  LIG1        0.0630
     32 H          -1.3274    8.6051    4.1228 H       1  LIG1        0.0624
     33 H          -1.2080    3.9571    5.2829 H       1  LIG1        0.0624
     34 H           0.8951    6.9561   -2.7569 H       1  LIG1        0.0624
     35 H           0.2159    7.4947   -0.4504 H       1  LIG1        0.0630
     36 H          -0.6408   12.3007    0.9508 H       1  LIG1        0.0618
     37 H           1.4920    3.2302    4.5903 H       1  LIG1        0.0624
     38 H          -1.6700    2.2703    1.9573 H       1  LIG1        0.0624
     39 H          -2.1017    8.4518    0.4595 H       1  LIG1        0.0624
     40 H           1.4257    2.3646   -1.4694 H       1  LIG1        0.0624
     41 H           1.0836    9.1208    2.9809 H       1  LIG1        0.0624
     42 H           1.5695    5.3949   -4.4436 H       1  LIG1        0.0618
     43 H          -2.1369    7.8967    6.2542 H       1  LIG1        0.0618
     44 H          -1.4871   -0.0506    2.6921 H       1  LIG1        0.0618
     45 H           0.9976   11.4718    2.4612 H       1  LIG1        0.0618
     46 H           0.1291   -0.7245    4.3912 H       1  LIG1        0.0618
     47 H          -2.2525   10.8106   -0.0535 H       1  LIG1        0.0618
     48 H          -2.0774    5.4718    6.8194 H       1  LIG1        0.0618
     49 H           1.8068    3.0173   -3.8146 H       1  LIG1        0.0618
     50 H           1.6642    0.9638    5.2806 H       1  LIG1        0.0618
@<TRIPOS>BOND
     1    42    29    1
     2    49    22    1
     3    29    22   ar
     4    29    17   ar
     5    22    25   ar
     6    34    17    1
     7    17    11   ar
     8    25    40    1
     9    25     3   ar
    10    11     3   ar
    11    11    13   ar
    12     3    10   ar
    13    35    13    1
    14    13     1   ar
    15    47    24    1
    16    39    19    1
    17    10    31    1
    18    10     2   ar
    19    24    19   ar
    20    24    21   ar
    21    19     9   ar
    22    36    21    1
    23     1     2   ar
    24     1     4   ar
    25    21    23   ar
    26     2     5   ar
    27     9     4    1
    28     9    15   ar
    29    38    20    1
    30    23    15   ar
    31    23    45    1
    32     4     6   ar
    33    15    41    1
    34    20    28   ar
    35    20     8   ar
    36    44    28    1
    37     5     8    1
    38     5     7   ar
    39    28    26   ar
    40     8    18   ar
    41     6     7   ar
    42     6    12   ar
    43     7    16   ar
    44    26    46    1
    45    26    30   ar
    46    32    12    1
    47    18    30   ar
    48    18    37    1
    49    12    14   ar
    50    30    50    1
    51    16    33    1
    52    16    27   ar
    53    14    27   ar
    54    14    43    1
    55    27    48    1
