@<TRIPOS>MOLECULE
?
 60 57 0 0 0
SMALL
GASTEIGER

@<TRIPOS>ATOM
      1 O           1.8541    4.6259    4.5180 O.2     1  LIG1       -0.2864
      2 C           1.9315    5.0744    5.6666 C.2     1  LIG1        0.2015
      3 C           3.2524    5.3491    6.3060 C.ar    1  LIG1        0.0748
      4 C           4.4171    5.6210    5.5467 C.ar    1  LIG1        0.1321
      5 O           4.2919    5.6890    4.1895 O.3     1  LIG1       -0.4890
      6 C           5.4120    6.1845    3.4260 C.3     1  LIG1        0.1129
      7 H           6.1659    5.5447    3.4666 H       1  LIG1        0.0720
      8 H           5.7161    7.0542    3.7875 H       1  LIG1        0.0720
      9 C           4.9369    6.3457    2.0017 C.3     1  LIG1        0.0818
     10 H           5.6800    6.6659    1.4314 H       1  LIG1        0.0594
     11 H           4.6258    5.4746    1.6482 H       1  LIG1        0.0594
     12 O           3.8481    7.3043    1.9828 O.3     1  LIG1       -0.3742
     13 C           3.8589    8.2371    0.8822 C.3     1  LIG1        0.0711
     14 H           3.7207    7.7577    0.0273 H       1  LIG1        0.0583
     15 H           4.7290    8.7066    0.8410 H       1  LIG1        0.0583
     16 C           2.7550    9.2189    1.1052 C.3     1  LIG1        0.0711
     17 H           2.8281    9.6155    2.0093 H       1  LIG1        0.0583
     18 H           2.8058    9.9484    0.4373 H       1  LIG1        0.0583
     19 O           1.5144    8.5104    0.9724 O.3     1  LIG1       -0.3752
     20 C           0.3885    9.2168    1.4942 C.3     1  LIG1        0.0711
     21 H           0.2191   10.0332    0.9614 H       1  LIG1        0.0583
     22 H           0.5575    9.4838    2.4331 H       1  LIG1        0.0583
     23 C          -0.7950    8.2967    1.4240 C.3     1  LIG1        0.0711
     24 H          -1.6172    8.7760    1.6969 H       1  LIG1        0.0583
     25 H          -0.9161    7.9673    0.4985 H       1  LIG1        0.0583
     26 O          -0.5439    7.2027    2.3085 O.3     1  LIG1       -0.3742
     27 C          -1.5992    6.2265    2.4675 C.3     1  LIG1        0.0818
     28 H          -1.3227    5.3631    2.0691 H       1  LIG1        0.0594
     29 H          -2.4177    6.5356    2.0045 H       1  LIG1        0.0594
     30 C          -1.8752    6.0499    3.9366 C.3     1  LIG1        0.1129
     31 H          -2.1515    6.9098    4.3418 H       1  LIG1        0.0720
     32 H          -2.5981    5.3884    4.0753 H       1  LIG1        0.0720
     33 O          -0.6391    5.5825    4.5371 O.3     1  LIG1       -0.4890
     34 C          -0.5571    5.5629    5.8958 C.ar    1  LIG1        0.1321
     35 C           0.7128    5.3344    6.4870 C.ar    1  LIG1        0.0748
     36 C          -1.6682    5.8046    6.7348 C.ar    1  LIG1       -0.0192
     37 H          -2.5200    5.9721    6.3497 H       1  LIG1        0.0654
     38 C          -1.5279    5.8011    8.1154 C.ar    1  LIG1       -0.0576
     39 H          -2.2849    5.9770    8.6615 H       1  LIG1        0.0619
     40 C          -0.3093    5.5454    8.7086 C.ar    1  LIG1       -0.0500
     41 H          -0.2295    5.5229    9.6550 H       1  LIG1        0.0625
     42 C           0.8055    5.3218    7.9003 C.ar    1  LIG1        0.0366
     43 C           2.1402    5.0884    8.5496 C.2     1  LIG1        0.1947
     44 C           3.3503    5.3316    7.7241 C.ar    1  LIG1        0.0366
     45 C           4.5695    5.5524    8.3615 C.ar    1  LIG1       -0.0500
     46 H           4.6270    5.5250    9.3094 H       1  LIG1        0.0625
     47 C           5.6975    5.8117    7.5989 C.ar    1  LIG1       -0.0576
     48 H           6.5284    5.9658    8.0322 H       1  LIG1        0.0619
     49 C           5.6334    5.8495    6.2124 C.ar    1  LIG1       -0.0192
     50 H           6.4179    6.0310    5.7094 H       1  LIG1        0.0654
     51 O           2.2109    4.7310    9.7205 O.2     1  LIG1       -0.2866
     52 CL         -4.2820    9.6780    2.4475 Cl      1  LIG1        0.1011
     53 O          -3.6602    9.0500    3.5563 O.3     2  HOH2        0.0000
     54 O          -3.6411   10.8875    2.1151 O.3     1  LIG1       -0.1011
     55 O          -5.6610    9.9442    2.7801 O.3     3  HOH3        0.0000
     56 O          -4.2133    8.7879    1.3262 O.3     4  HOH4        0.0000
     57 O           1.6987    5.9756    2.3051 O.3     5  HOH5       -0.4105
     58 H           1.8119    5.4774    3.1238 H       6  UNK6        0.0000
     59 H           2.4422    6.5209    2.2414 H       0  HOH0        0.2052
     60 H           1.0240    6.4613    2.2949 H       0  HOH0        0.2052
@<TRIPOS>BOND
     1    14    13    1
     2    18    16    1
     3    25    23    1
     4    15    13    1
     5    13    16    1
     6    13    12    1
     7    21    20    1
     8    19    16    1
     9    19    20    1
    10    16    17    1
    11    23    20    1
    12    23    24    1
    13    23    26    1
    14    10     9    1
    15    20    22    1
    16    11     9    1
    17    12     9    1
    18     9     6    1
    19    29    27    1
    20    28    27    1
    21    54    52    1
    22    59    57    1
    23    60    57    1
    24    26    27    1
    25    27    30    1
    26     6     7    1
    27     6     8    1
    28     6     5    1
    29    30    32    1
    30    30    31    1
    31    30    33    1
    32     5     4    1
    33     1     2    2
    34    33    34    1
    35     4    49   ar
    36     4     3   ar
    37     2     3    1
    38     2    35    1
    39    50    49    1
    40    34    35   ar
    41    34    36   ar
    42    49    47   ar
    43     3    44   ar
    44    37    36    1
    45    35    42   ar
    46    36    38   ar
    47    47    48    1
    48    47    45   ar
    49    44    45   ar
    50    44    43    1
    51    42    43    1
    52    42    40   ar
    53    38    39    1
    54    38    40   ar
    55    45    46    1
    56    43    51    2
    57    40    41    1
