@<TRIPOS>MOLECULE
?
 88 94 0 0 0
SMALL
GASTEIGER

@<TRIPOS>ATOM
      1 P          -5.7617   11.0649   17.1914 P.3     1  LIG1        0.1733
      2 S          -4.9203   12.8271   17.8140 S.3     1  LIG1        0.0326
      3 C          -4.6591   10.1189   16.1263 C.ar    1  LIG1        0.1337
      4 C          -4.0216   10.4611   14.8856 C.ar    1  LIG1        0.0341
      5 C          -4.2772   11.7092   14.2942 C.ar    1  LIG1       -0.0082
      6 H          -4.8595   12.3111   14.7002 H       1  LIG1        0.0661
      7 C          -3.6565   12.0347   13.1053 C.ar    1  LIG1        0.1243
      8 C          -2.7986   11.1173   12.4904 C.ar    1  LIG1        0.0224
      9 H          -2.3971   11.3393   11.6805 H       1  LIG1        0.0691
     10 C          -2.5345    9.8900   13.0624 C.ar    1  LIG1        0.1319
     11 C          -3.1181    9.5063   14.3170 C.ar    1  LIG1        0.0355
     12 C          -2.8344    8.2433   15.0213 C.ar    1  LIG1       -0.0053
     13 C          -1.8925    7.2636   14.6002 C.ar    1  LIG1       -0.0533
     14 H          -1.3957    7.4058   13.8260 H       1  LIG1        0.0624
     15 C          -1.7084    6.1118   15.3248 C.ar    1  LIG1       -0.0606
     16 H          -1.0841    5.4912   15.0252 H       1  LIG1        0.0618
     17 C          -2.4251    5.8319   16.4991 C.ar    1  LIG1       -0.0534
     18 H          -2.2951    5.0248   16.9435 H       1  LIG1        0.0624
     19 C          -3.3223    6.7564   16.9939 C.ar    1  LIG1       -0.0088
     20 C          -4.0584    6.5404   18.2706 C.ar    1  LIG1       -0.0088
     21 C          -3.9333    5.3755   19.0041 C.ar    1  LIG1       -0.0534
     22 H          -3.3931    4.6857   18.6906 H       1  LIG1        0.0624
     23 C          -4.6151    5.2333   20.2134 C.ar    1  LIG1       -0.0606
     24 H          -4.5223    4.4396   20.6865 H       1  LIG1        0.0618
     25 C          -5.4210    6.2227   20.7336 C.ar    1  LIG1       -0.0533
     26 H          -5.8461    6.0897   21.5492 H       1  LIG1        0.0624
     27 C          -5.6097    7.4477   20.0359 C.ar    1  LIG1       -0.0053
     28 C          -6.4616    8.5574   20.4830 C.ar    1  LIG1        0.0355
     29 C          -7.2013    8.5667   21.7099 C.ar    1  LIG1        0.1319
     30 C          -8.0554    9.5920   22.0297 C.ar    1  LIG1        0.0224
     31 H          -8.5500    9.5464   22.8161 H       1  LIG1        0.0691
     32 C          -8.1970   10.7086   21.1944 C.ar    1  LIG1        0.1243
     33 C          -7.4454   10.8088   20.0437 C.ar    1  LIG1       -0.0082
     34 H          -7.4907   11.5732   19.5160 H       1  LIG1        0.0661
     35 C          -6.6086    9.7364   19.6769 C.ar    1  LIG1        0.0341
     36 C          -5.8774    9.7836   18.4464 C.ar    1  LIG1        0.1337
     37 C          -5.0784    8.7445   18.0392 C.ar    1  LIG1        0.0392
     38 C          -4.4063    8.9330   16.7575 C.ar    1  LIG1        0.0392
     39 C          -3.5171    7.9590   16.2420 C.ar    1  LIG1        0.0022
     40 C          -4.9108    7.5657   18.7944 C.ar    1  LIG1        0.0022
     41 C          -7.3702   11.5291   16.5321 C.ar    1  LIG1        0.1175
     42 C          -7.5506   12.7195   15.8362 C.ar    1  LIG1       -0.0178
     43 H          -6.8331   13.2960   15.6996 H       1  LIG1        0.0657
     44 C          -8.8105   13.0428   15.3430 C.ar    1  LIG1       -0.0580
     45 H          -8.9386   13.8368   14.8757 H       1  LIG1        0.0619
     46 C          -9.8737   12.1793   15.5515 C.ar    1  LIG1       -0.0615
     47 H         -10.7165   12.3984   15.2265 H       1  LIG1        0.0618
     48 C          -9.6917   10.9974   16.2360 C.ar    1  LIG1       -0.0580
     49 H         -10.4111   10.4225   16.3625 H       1  LIG1        0.0619
     50 C          -8.4474   10.6581   16.7368 C.ar    1  LIG1       -0.0178
     51 H          -8.3281    9.8623   17.2037 H       1  LIG1        0.0657
     52 C           3.8325    8.1598    3.6352 C.3     2  LIG2        0.5487
     53 O          -1.7063    8.9895   12.4547 O.3     1  LIG1       -0.4944
     54 O          -3.8107   13.2083   12.4508 O.3     1  LIG1       -0.4950
     55 O          -7.0131    7.5061   22.5401 O.3     1  LIG1       -0.4944
     56 O          -9.1009   11.6352   21.6211 O.3     1  LIG1       -0.4950
     57 O           2.0612    7.0679    2.1943 O.2     2  LIG2       -0.1362
     58 O           1.5712    9.2420    3.1793 O.2     2  LIG2       -0.1362
     59 O           1.6368    7.2746    4.5583 O.3     2  LIG2       -0.0397
     60 CL          2.8765    1.0644    5.2241 Cl      1  LIG1       -0.1083
     61 CL          3.7630   -1.5270    6.1927 Cl      1  LIG1       -0.1083
     62 C          -1.0423    9.3837   11.2463 C.3     1  LIG1        0.0788
     63 H          -0.5001    8.6580   10.9285 H       1  LIG1        0.0660
     64 H          -0.4860   10.1457   11.4203 H       1  LIG1        0.0660
     65 H          -1.6959    9.6098   10.5805 H       1  LIG1        0.0660
     66 C          -7.5931    7.5521   23.8457 C.3     1  LIG1        0.0788
     67 H          -7.3799    6.7454   24.3188 H       1  LIG1        0.0660
     68 H          -8.5471    7.6347   23.7694 H       1  LIG1        0.0660
     69 H          -7.2432    8.3061   24.3245 H       1  LIG1        0.0660
     70 C          -3.3371   12.1901   18.4418 C.3     1  LIG1        0.0205
     71 H          -2.8114   12.9175   18.7812 H       1  LIG1        0.0375
     72 H          -2.8618   11.7557   17.7300 H       1  LIG1        0.0375
     73 H          -3.5028   11.5607   19.1479 H       1  LIG1        0.0375
     74 C          -4.5756   14.2241   13.1056 C.3     1  LIG1        0.0788
     75 H          -4.6150   15.0049   12.5491 H       1  LIG1        0.0660
     76 H          -4.1604   14.4476   13.9424 H       1  LIG1        0.0660
     77 H          -5.4653   13.9009   13.2666 H       1  LIG1        0.0660
     78 C          -9.3478   12.7579   20.7756 C.3     1  LIG1        0.0788
     79 H          -9.9980   13.3320   21.1869 H       1  LIG1        0.0660
     80 H          -9.6800   12.4539   19.9272 H       1  LIG1        0.0660
     81 H          -8.5306   13.2445   20.6419 H       1  LIG1        0.0660
     82 C           2.7016   -0.1561    6.4996 C.3     1  LIG1        0.0970
     83 H           2.9211    0.2392    7.3580 H       1  LIG1        0.0597
     84 H           1.7808   -0.4595    6.5341 H       1  LIG1        0.0597
     85 S           2.0798    7.9209    3.3596 S.3     2  LIG2        0.2092
     86 F           4.4640    7.0133    3.8652 F       2  LIG2       -0.1486
     87 F           4.4092    8.6736    2.5481 F       2  LIG2       -0.1486
     88 F           4.0621    8.9977    4.6130 F       2  LIG2       -0.1486
@<TRIPOS>BOND
     1    57    85    2
     2    87    52    1
     3    58    85    2
     4    85    52    1
     5    85    59    1
     6    52    86    1
     7    52    88    1
     8    60    82    1
     9    61    82    1
    10    82    84    1
    11    82    83    1
    12    65    62    1
    13    63    62    1
    14    62    64    1
    15    62    53    1
    16     9     8    1
    17    54     7    1
    18    54    74    1
    19    53    10    1
    20     8    10   ar
    21     8     7   ar
    22    75    74    1
    23    10    11   ar
    24     7     5   ar
    25    74    77    1
    26    74    76    1
    27    14    13    1
    28     5     6    1
    29     5     4   ar
    30    11     4   ar
    31    11    12   ar
    32    13    12   ar
    33    13    15   ar
    34    45    44    1
    35     4     3   ar
    36    12    39   ar
    37    16    15    1
    38    47    46    1
    39    15    17   ar
    40    44    46   ar
    41    44    42   ar
    42    46    48   ar
    43    43    42    1
    44    42    41   ar
    45     3    38   ar
    46     3     1    1
    47    48    49    1
    48    48    50   ar
    49    39    38   ar
    50    39    19   ar
    51    17    18    1
    52    17    19   ar
    53    41    50   ar
    54    41     1    1
    55    50    51    1
    56    38    37   ar
    57    19    20   ar
    58     1     2    1
    59     1    36    1
    60    72    70    1
    61     2    70    1
    62    37    36   ar
    63    37    40   ar
    64    20    40   ar
    65    20    21   ar
    66    70    71    1
    67    70    73    1
    68    36    35   ar
    69    22    21    1
    70    40    27   ar
    71    21    23   ar
    72    34    33    1
    73    35    33   ar
    74    35    28   ar
    75    80    78    1
    76    27    28   ar
    77    27    25   ar
    78    33    32   ar
    79    23    24    1
    80    23    25   ar
    81    28    29   ar
    82    81    78    1
    83    25    26    1
    84    78    79    1
    85    78    56    1
    86    32    56    1
    87    32    30   ar
    88    29    30   ar
    89    29    55    1
    90    30    31    1
    91    55    66    1
    92    68    66    1
    93    66    67    1
    94    66    69    1
