@<TRIPOS>MOLECULE
?
 51 54 0 0 0
SMALL
GASTEIGER

@<TRIPOS>ATOM
      1 O           0.5722    0.1843    5.2279 O.2     1  LIG1       -0.2496
      2 O           0.4273    2.1596    4.1681 O.3     1  LIG1       -0.4671
      3 O           3.5451   -1.1873    4.2509 O.2     1  LIG1       -0.2496
      4 O           1.6666   -1.4868    3.0648 O.3     1  LIG1       -0.4671
      5 N           8.0229    3.8442    1.9558 N.ar    1  LIG1       -0.2534
      6 N           5.4399    2.0847    0.4273 N.ar    1  LIG1       -0.2431
      7 N           2.1631    1.4602   -0.8636 N.ar    1  LIG1       -0.2534
      8 C           9.3033    4.1669    1.7151 C.ar    1  LIG1        0.0283
      9 H           9.6568    4.9361    2.1453 H       1  LIG1        0.0830
     10 C          10.1379    3.4493    0.8807 C.ar    1  LIG1       -0.0436
     11 H          11.0406    3.7135    0.7484 H       1  LIG1        0.0633
     12 C           9.6237    2.3373    0.2439 C.ar    1  LIG1       -0.0583
     13 H          10.1743    1.8055   -0.3180 H       1  LIG1        0.0619
     14 C           8.2916    2.0089    0.4369 C.ar    1  LIG1       -0.0342
     15 H           7.9039    1.2714   -0.0207 H       1  LIG1        0.0639
     16 C           7.5327    2.7775    1.3118 C.ar    1  LIG1        0.0894
     17 C           6.1007    2.4131    1.5457 C.ar    1  LIG1        0.0930
     18 C           5.5365    2.3522    2.8368 C.ar    1  LIG1       -0.0195
     19 C           6.2921    2.6885    4.0973 C.3     1  LIG1       -0.0374
     20 H           6.2679    3.6568    4.2448 H       1  LIG1        0.0278
     21 H           7.2226    2.3948    4.0083 H       1  LIG1        0.0278
     22 H           5.8767    2.2325    4.8589 H       1  LIG1        0.0278
     23 C           4.2261    1.8882    2.8886 C.ar    1  LIG1       -0.0355
     24 C           3.3900    1.6203    4.1163 C.3     1  LIG1       -0.0006
     25 H           3.0493    2.4641    4.5076 H       1  LIG1        0.0329
     26 H           3.9106    1.1328    4.8026 H       1  LIG1        0.0329
     27 C           2.2271    0.7473    3.5697 C.3     1  LIG1        0.1716
     28 C           0.9760    0.9689    4.4083 C.2     1  LIG1        0.3246
     29 C          -0.6893    2.5177    5.0254 C.3     1  LIG1        0.0817
     30 H          -1.3718    1.8150    4.9828 H       1  LIG1        0.0661
     31 H          -1.0746    3.3669    4.7223 H       1  LIG1        0.0661
     32 H          -0.3742    2.6122    5.9482 H       1  LIG1        0.0661
     33 C           2.5847   -0.7372    3.6873 C.2     1  LIG1        0.3246
     34 C           1.8126   -2.9155    3.2127 C.3     1  LIG1        0.0817
     35 H           2.6497   -3.2030    2.7916 H       1  LIG1        0.0661
     36 H           1.0569   -3.3669    2.7813 H       1  LIG1        0.0661
     37 H           1.8300   -3.1447    4.1656 H       1  LIG1        0.0661
     38 C           2.1013    1.1523    2.0720 C.3     1  LIG1        0.0011
     39 H           1.8187    0.3844    1.5152 H       1  LIG1        0.0330
     40 H           1.4559    1.8938    1.9537 H       1  LIG1        0.0330
     41 C           3.5077    1.5905    1.7291 C.ar    1  LIG1       -0.0148
     42 C           4.1481    1.7063    0.4967 C.ar    1  LIG1        0.0933
     43 C           3.5065    1.3746   -0.8043 C.ar    1  LIG1        0.0894
     44 C           4.2875    0.9700   -1.8845 C.ar    1  LIG1       -0.0342
     45 H           5.2326    0.9232   -1.8044 H       1  LIG1        0.0639
     46 C           3.6676    0.6367   -3.0753 C.ar    1  LIG1       -0.0583
     47 H           4.1801    0.3624   -3.8270 H       1  LIG1        0.0619
     48 C           2.2860    0.7102   -3.1521 C.ar    1  LIG1       -0.0436
     49 H           1.8281    0.4821   -3.9532 H       1  LIG1        0.0633
     50 C           1.5910    1.1249   -2.0287 C.ar    1  LIG1        0.0283
     51 H           0.6446    1.1753   -2.0879 H       1  LIG1        0.0830
@<TRIPOS>BOND
     1    49    48    1
     2    47    46    1
     3    48    46   ar
     4    48    50   ar
     5    46    44   ar
     6    51    50    1
     7    50     7   ar
     8    44    45    1
     9    44    43   ar
    10     7    43   ar
    11    43    42    1
    12    13    12    1
    13    15    14    1
    14    12    14   ar
    15    12    10   ar
    16     6    42   ar
    17     6    17   ar
    18    14    16   ar
    19    42    41   ar
    20    11    10    1
    21    10     8   ar
    22    16    17    1
    23    16     5   ar
    24    39    38    1
    25    17    18   ar
    26     8     5   ar
    27     8     9    1
    28    41    38    1
    29    41    23   ar
    30    40    38    1
    31    38    27    1
    32    36    34    1
    33    35    34    1
    34    18    23   ar
    35    18    19    1
    36    23    24    1
    37     4    34    1
    38     4    33    1
    39    34    37    1
    40    27    33    1
    41    27    24    1
    42    27    28    1
    43    33     3    2
    44    21    19    1
    45    19    20    1
    46    19    22    1
    47    24    25    1
    48    24    26    1
    49     2    28    1
    50     2    29    1
    51    28     1    2
    52    31    29    1
    53    30    29    1
    54    29    32    1
