@<TRIPOS>MOLECULE
C33 H30 P2
 65 69 0 0 0
SMALL
GASTEIGER

@<TRIPOS>ATOM
      1 P           3.2000    5.1109    5.9941 P.3     1  LIG1       -0.0360
      2 C           1.8229    5.7789    7.0075 C.ar    1  LIG1       -0.0184
      3 C           0.5519    5.2542    6.7414 C.ar    1  LIG1       -0.0538
      4 H           0.4411    4.5293    6.0293 H       1  LIG1        0.0624
      5 C          -0.5745    5.7562    7.3831 C.ar    1  LIG1       -0.0612
      6 H          -1.4464    5.3920    7.1845 H       1  LIG1        0.0618
      7 C          -0.4421    6.7472    8.3278 C.ar    1  LIG1       -0.0617
      8 H          -1.2412    7.1174    8.7762 H       1  LIG1        0.0618
      9 C           0.8083    7.2504    8.6357 C.ar    1  LIG1       -0.0612
     10 H           0.8617    7.9682    9.3074 H       1  LIG1        0.0618
     11 C           1.9306    6.7711    7.9746 C.ar    1  LIG1       -0.0538
     12 H           2.8005    7.1773    8.2074 H       1  LIG1        0.0624
     13 C           3.0564    6.1785    4.4998 C.ar    1  LIG1       -0.0184
     14 C           2.2681    7.3211    4.4306 C.ar    1  LIG1       -0.0538
     15 H           1.7747    7.5608    5.1960 H       1  LIG1        0.0624
     16 C           2.1778    8.0437    3.2600 C.ar    1  LIG1       -0.0612
     17 H           1.6105    8.7710    3.2296 H       1  LIG1        0.0618
     18 C           2.8712    7.6602    2.1357 C.ar    1  LIG1       -0.0617
     19 H           2.7389    8.1599    1.3778 H       1  LIG1        0.0618
     20 C           3.6570    6.5411    2.1900 C.ar    1  LIG1       -0.0612
     21 H           4.1340    6.1948    1.4395 H       1  LIG1        0.0618
     22 C           3.7493    5.8018    3.3577 C.ar    1  LIG1       -0.0538
     23 H           4.2571    4.9966    3.3795 H       1  LIG1        0.0624
     24 P           6.1966    6.0219    9.2010 P.3     1  LIG1       -0.0429
     25 C           6.4491    4.8557   10.5929 C.ar    1  LIG1       -0.0189
     26 C           7.6936    4.8971   11.2340 C.ar    1  LIG1       -0.0538
     27 H           8.3091    5.5717   10.8947 H       1  LIG1        0.0624
     28 C           7.9716    4.0500   12.2886 C.ar    1  LIG1       -0.0612
     29 H           8.8220    4.1339   12.7134 H       1  LIG1        0.0618
     30 C           7.0401    3.1178   12.6964 C.ar    1  LIG1       -0.0617
     31 H           7.1499    2.5402   13.4585 H       1  LIG1        0.0618
     32 C           5.8184    3.0519   12.0631 C.ar    1  LIG1       -0.0612
     33 H           5.1598    2.3964   12.2637 H       1  LIG1        0.0618
     34 C           5.5189    3.9182   11.0210 C.ar    1  LIG1       -0.0538
     35 H           4.6367    3.8942   10.5993 H       1  LIG1        0.0624
     36 C           5.0910    7.3009    9.9285 C.ar    1  LIG1       -0.0189
     37 C           4.2520    7.0995   11.0217 C.ar    1  LIG1       -0.0538
     38 H           4.2571    6.2188   11.4855 H       1  LIG1        0.0624
     39 C           3.3780    8.1012   11.4295 C.ar    1  LIG1       -0.0612
     40 H           2.7902    7.9682   12.1733 H       1  LIG1        0.0618
     41 C           3.3226    9.3018   10.7512 C.ar    1  LIG1       -0.0617
     42 H           2.6671    9.9452   11.0027 H       1  LIG1        0.0618
     43 C           4.1617    9.5246    9.6743 C.ar    1  LIG1       -0.0612
     44 H           4.0725   10.4125    9.1818 H       1  LIG1        0.0618
     45 C           5.0480    8.5397    9.2909 C.ar    1  LIG1       -0.0538
     46 H           5.5804    8.7111    8.5601 H       1  LIG1        0.0624
     47 C           4.7174    5.8365    6.8263 C.3     1  LIG1        0.0169
     48 H           4.5238    6.7819    6.9795 H       1  LIG1        0.0407
     49 C           5.9132    5.7193    5.9002 C.ar    1  LIG1       -0.0391
     50 C           6.5724    6.8610    5.4427 C.ar    1  LIG1       -0.0577
     51 H           6.2472    7.7285    5.7163 H       1  LIG1        0.0621
     52 C           7.6679    6.7544    4.5876 C.ar    1  LIG1       -0.0586
     53 H           8.1142    7.5967    4.3407 H       1  LIG1        0.0620
     54 C           8.1306    5.5142    4.1537 C.ar    1  LIG1       -0.0504
     55 C           7.4699    4.3867    4.6090 C.ar    1  LIG1       -0.0586
     56 H           7.7756    3.5347    4.3671 H       1  LIG1        0.0620
     57 C           6.3816    4.4765    5.4740 C.ar    1  LIG1       -0.0577
     58 H           5.9394    3.6785    5.7846 H       1  LIG1        0.0621
     59 C           9.3051    5.4064    3.2146 C.3     1  LIG1       -0.0397
     60 H           9.6436    4.4861    3.2186 H       1  LIG1        0.0278
     61 H          10.0140    6.0163    3.5074 H       1  LIG1        0.0278
     62 H           9.0220    5.6460    2.3081 H       1  LIG1        0.0278
     63 C           4.9437    5.1200    8.1679 C.3     1  LIG1       -0.0131
     64 H           4.1032    5.0086    8.6505 H       1  LIG1        0.0328
     65 H           5.3034    4.2177    8.0068 H       1  LIG1        0.0328
@<TRIPOS>BOND
     1    19    18    1
     2    21    20    1
     3    18    20   ar
     4    18    16   ar
     5    20    22   ar
     6    62    59    1
     7    59    60    1
     8    59    61    1
     9    59    54    1
    10    17    16    1
    11    16    14   ar
    12    22    23    1
    13    22    13   ar
    14    54    52   ar
    15    54    55   ar
    16    53    52    1
    17    56    55    1
    18    14    13   ar
    19    14    15    1
    20    13     1    1
    21    52    50   ar
    22    55    57   ar
    23    50    51    1
    24    50    49   ar
    25    57    58    1
    26    57    49   ar
    27    49    47    1
    28     1    47    1
    29     1     2    1
    30     4     3    1
    31     3     2   ar
    32     3     5   ar
    33    47    48    1
    34    47    63    1
    35     2    11   ar
    36     6     5    1
    37     5     7   ar
    38    11    12    1
    39    11     9   ar
    40    65    63    1
    41    63    64    1
    42    63    24    1
    43     7     9   ar
    44     7     8    1
    45    46    45    1
    46     9    10    1
    47    44    43    1
    48    24    36    1
    49    24    25    1
    50    45    43   ar
    51    45    36   ar
    52    43    41   ar
    53    36    37   ar
    54    25    34   ar
    55    25    26   ar
    56    35    34    1
    57    41    42    1
    58    41    39   ar
    59    27    26    1
    60    34    32   ar
    61    37    39   ar
    62    37    38    1
    63    26    28   ar
    64    39    40    1
    65    32    33    1
    66    32    30   ar
    67    28    30   ar
    68    28    29    1
    69    30    31    1
