@<TRIPOS>MOLECULE
TPB-1
 24 25 0 0 0
SMALL
GASTEIGER

@<TRIPOS>ATOM
      1 N           6.4554    8.1633   10.1397 N.ar    1  LIG1       -0.2632
      2 N           2.8089    6.0025    5.2660 N.ar    1  LIG1       -0.2632
      3 C           6.7994    9.3744    9.6878 C.ar    1  LIG1        0.0278
      4 C           5.9958   10.1637    8.8889 C.ar    1  LIG1       -0.0395
      5 C           4.7308    9.6976    8.5145 C.ar    1  LIG1       -0.0316
      6 C           4.3717    8.4390    8.9774 C.ar    1  LIG1       -0.0395
      7 C           5.2476    7.7271    9.7732 C.ar    1  LIG1        0.0278
      8 C           3.8144   10.5503    7.7052 C.3     1  LIG1        0.0508
      9 C           2.9965   10.0544    6.6762 C.2     1  LIG1       -0.0272
     10 C           2.1499   10.9279    5.9919 C.2     1  LIG1       -0.0568
     11 C           3.9221    6.7209    5.1432 C.ar    1  LIG1        0.0281
     12 C           4.0509    8.0161    5.6168 C.ar    1  LIG1       -0.0361
     13 C           2.9750    8.6268    6.2406 C.ar    1  LIG1       -0.0181
     14 C           1.8170    7.8721    6.3768 C.ar    1  LIG1       -0.0361
     15 C           1.7892    6.5825    5.8979 C.ar    1  LIG1        0.0281
     16 H           1.5706   10.4892    5.2499 H       1  LIG1        0.0621
     17 H           1.1090    8.2530    6.7698 H       1  LIG1        0.0639
     18 H           4.9542    8.4608    5.5410 H       1  LIG1        0.0639
     19 H           0.9612    6.0076    6.0630 H       1  LIG1        0.0830
     20 H           4.7670    6.2862    4.6032 H       1  LIG1        0.0830
     21 H           7.7450    9.7309    9.9679 H       1  LIG1        0.0829
     22 H           3.4732    8.0965    8.7278 H       1  LIG1        0.0636
     23 H           6.2477   11.1528    8.5837 H       1  LIG1        0.0636
     24 H           4.9576    6.7888   10.0588 H       1  LIG1        0.0829
@<TRIPOS>BOND
     1    20    11    1
     2    11     2   ar
     3    11    12   ar
     4    16    10    1
     5     2    15   ar
     6    18    12    1
     7    12    13   ar
     8    15    19    1
     9    15    14   ar
    10    10     9    2
    11    13    14   ar
    12    13     9    1
    13    14    17    1
    14     9     8    1
    15     8     5    1
    16     5     4   ar
    17     5     6   ar
    18    23     4    1
    19    22     6    1
    20     4     3   ar
    21     6     7   ar
    22     3    21    1
    23     3     1   ar
    24     7    24    1
    25     7     1   ar
