@<TRIPOS>MOLECULE
?
 47 48 0 0 0
SMALL
GASTEIGER

@<TRIPOS>ATOM
      1 O           1.0862    5.7307    9.3403 O.2     1  LIG1       -0.2508
      2 O           2.0035    7.6732    8.7363 O.3     1  LIG1       -0.4580
      3 O          -1.2090    8.4135    0.3373 O.3     1  LIG1       -0.3646
      4 O          -2.5145   10.2985    2.2764 O.3     1  LIG1       -0.3765
      5 O           0.1030   10.6289    9.4659 O.3     1  LIG1       -0.3755
      6 C           1.9417    6.3470    8.7458 C.2     1  LIG1        0.3074
      7 C           3.0373    5.7292    7.9424 C.3     1  LIG1        0.0450
      8 H           3.5209    5.0963    8.4982 H       1  LIG1        0.0377
      9 H           3.6596    6.4211    7.6652 H       1  LIG1        0.0377
     10 C           2.5065    5.0086    6.7025 C.3     1  LIG1       -0.0430
     11 H           3.2556    4.6404    6.2087 H       1  LIG1        0.0270
     12 H           1.9471    4.2676    6.9870 H       1  LIG1        0.0270
     13 C           1.7070    5.9024    5.7862 C.3     1  LIG1       -0.0526
     14 H           2.2506    6.6638    5.5304 H       1  LIG1        0.0265
     15 H           0.9317    6.2366    6.2633 H       1  LIG1        0.0265
     16 C           1.2451    5.1727    4.5295 C.3     1  LIG1       -0.0530
     17 H           2.0214    4.9012    4.0147 H       1  LIG1        0.0265
     18 H           0.7634    4.3704    4.7885 H       1  LIG1        0.0265
     19 C           0.3480    6.0354    3.6583 C.3     1  LIG1       -0.0530
     20 H          -0.4579    6.2517    4.1512 H       1  LIG1        0.0265
     21 H           0.8060    6.8672    3.4594 H       1  LIG1        0.0265
     22 C          -0.0391    5.3640    2.3569 C.3     1  LIG1       -0.0506
     23 H          -0.4673    4.5164    2.5536 H       1  LIG1        0.0266
     24 H           0.7644    5.1795    1.8435 H       1  LIG1        0.0266
     25 C          -0.9817    6.2131    1.5117 C.3     1  LIG1       -0.0240
     26 H          -1.2228    5.7186    0.7146 H       1  LIG1        0.0291
     27 H          -1.7941    6.3795    2.0164 H       1  LIG1        0.0291
     28 C          -0.3787    7.5190    1.1129 C.3     1  LIG1        0.0888
     29 H           0.5456    7.4524    0.7920 H       1  LIG1        0.0623
     30 C          -0.7347    8.8354    1.6414 C.3     1  LIG1        0.1221
     31 H          -0.0144    9.5000    1.6295 H       1  LIG1        0.0658
     32 C          -1.8377    9.1046    2.6278 C.3     1  LIG1        0.1448
     33 H          -2.4704    8.3567    2.6218 H       1  LIG1        0.0759
     34 C          -1.2708    9.2588    3.9833 C.1     1  LIG1       -0.0544
     35 C          -0.7783    9.3246    5.0571 C.1     1  LIG1       -0.0121
     36 C          -0.2000    9.4131    6.3106 C.1     1  LIG1       -0.0121
     37 C           0.3109    9.5227    7.3803 C.1     1  LIG1       -0.0534
     38 C           0.9060    9.7427    8.7172 C.3     1  LIG1        0.1527
     39 H           1.7971   10.1367    8.6075 H       1  LIG1        0.0769
     40 C           1.0332    8.4331    9.5069 C.3     1  LIG1        0.1371
     41 H           0.1738    7.9643    9.5406 H       1  LIG1        0.0767
     42 C           1.5644    8.6584   10.8888 C.3     1  LIG1       -0.0243
     43 H           1.6446    7.8161   11.3431 H       1  LIG1        0.0266
     44 H           0.9624    9.2278   11.3749 H       1  LIG1        0.0266
     45 H           2.4273    9.0766   10.8378 H       1  LIG1        0.0266
     46 H          -2.8318   10.2304    1.5066 H       1  LIG1        0.2112
     47 H           0.4010   11.4176    9.3813 H       1  LIG1        0.2113
@<TRIPOS>BOND
     1     3    28    1
     2     3    30    1
     3    26    25    1
     4    29    28    1
     5    28    25    1
     6    28    30    1
     7    46     4    1
     8    25    27    1
     9    25    22    1
    10    31    30    1
    11    30    32    1
    12    24    22    1
    13     4    32    1
    14    22    23    1
    15    22    19    1
    16    33    32    1
    17    32    34    1
    18    21    19    1
    19    19    20    1
    20    19    16    1
    21    34    35    3
    22    17    16    1
    23    16    18    1
    24    16    13    1
    25    35    36    1
    26    14    13    1
    27    13    15    1
    28    13    10    1
    29    11    10    1
    30    36    37    3
    31    10    12    1
    32    10     7    1
    33    37    38    1
    34     9     7    1
    35     7     8    1
    36     7     6    1
    37    39    38    1
    38    38     5    1
    39    38    40    1
    40     2     6    1
    41     2    40    1
    42     6     1    2
    43    47     5    1
    44    40    41    1
    45    40    42    1
    46    45    42    1
    47    42    43    1
    48    42    44    1
