@<TRIPOS>MOLECULE
?
 34 34 0 0 0
SMALL
GASTEIGER

@<TRIPOS>ATOM
      1 O           2.0638    2.8244    4.0229 O.3     1  LIG1       -0.3733
      2 O           2.3401    0.5589    4.7317 O.3     1  LIG1       -0.3857
      3 H           2.5252    0.6513    5.5672 H       1  LIG1        0.2103
      4 C           1.3408    1.3720    4.3655 C.3     1  LIG1        0.0948
      5 C           0.3684    1.8502    5.4136 C.3     1  LIG1       -0.0190
      6 H           0.8013    1.8699    6.3034 H       1  LIG1        0.0295
      7 H          -0.4173    1.2493    5.4570 H       1  LIG1        0.0295
      8 C          -0.0596    3.2571    4.9989 C.3     1  LIG1       -0.0239
      9 H          -0.6887    3.2248    4.2347 H       1  LIG1        0.0291
     10 H          -0.4914    3.7320    5.7523 H       1  LIG1        0.0291
     11 C           1.2414    3.9384    4.6023 C.3     1  LIG1        0.0592
     12 H           1.6937    4.3329    5.4019 H       1  LIG1        0.0596
     13 C           1.1636    4.9546    3.4699 C.3     1  LIG1       -0.0242
     14 H           1.9427    5.5644    3.4844 H       1  LIG1        0.0291
     15 H           0.3331    5.4894    3.5283 H       1  LIG1        0.0291
     16 C           1.1712    4.0813    2.2074 C.3     1  LIG1       -0.0242
     17 H           0.2721    3.7053    2.0305 H       1  LIG1        0.0291
     18 H           1.4640    4.6013    1.4172 H       1  LIG1        0.0291
     19 C           2.1704    2.9758    2.5360 C.3     1  LIG1        0.0592
     20 H           3.0962    3.2494    2.2763 H       1  LIG1        0.0596
     21 C           1.8563    1.5848    2.0110 C.3     1  LIG1       -0.0239
     22 H           2.6707    1.0213    1.9980 H       1  LIG1        0.0291
     23 H           1.4842    1.6301    1.0951 H       1  LIG1        0.0291
     24 C           0.8241    1.0256    2.9886 C.3     1  LIG1       -0.0190
     25 H          -0.0616    1.4387    2.8345 H       1  LIG1        0.0295
     26 H           0.7404    0.0444    2.8839 H       1  LIG1        0.0295
     27 S           3.8476    2.1597    7.7982 S.3     2  LIG2        0.2092
     28 F           4.6381    3.0649    5.4698 F       2  LIG2       -0.1486
     29 F           5.6044    4.0062    7.1544 F       2  LIG2       -0.1486
     30 F           6.1636    2.0151    6.5776 F       2  LIG2       -0.1486
     31 O           2.8079    3.1544    7.7740 O.2     2  LIG2       -0.1362
     32 O           3.4990    0.9190    7.1262 O.2     2  LIG2       -0.1362
     33 O           4.5459    1.9905    9.0442 O.3     2  LIG2       -0.0397
     34 C           5.1166    2.8478    6.6898 C.3     2  LIG2        0.5487
@<TRIPOS>BOND
     1    23    21    1
     2    18    16    1
     3    22    21    1
     4    21    19    1
     5    21    24    1
     6    17    16    1
     7    16    19    1
     8    16    13    1
     9    20    19    1
    10    19     1    1
    11    25    24    1
    12    26    24    1
    13    24     4    1
    14    13    14    1
    15    13    15    1
    16    13    11    1
    17     1    11    1
    18     9     8    1
    19     4     2    1
    20     4     5    1
    21    11     8    1
    22    11    12    1
    23     2     3    1
    24     8     5    1
    25     8    10    1
    26     5     7    1
    27     5     6    1
    28    28    34    1
    29    30    34    1
    30    34    29    1
    31    34    27    1
    32    32    27    2
    33    31    27    2
    34    27    33    1
