@<TRIPOS>MOLECULE
?
 31 33 0 0 0
SMALL
GASTEIGER

@<TRIPOS>ATOM
      1 BR          2.0975    3.6955    4.9590 Br      1  LIG1       -0.0484
      2 BR         -1.0032    5.2846   10.4830 Br      1  LIG1       -0.0496
      3 O          -3.1194    4.4747    7.5170 O.3     1  LIG1       -0.5061
      4 H          -3.8321    4.2955    7.3465 H       1  LIG1        0.2922
      5 N          -0.3343    5.5878    5.2522 N.pl3   1  LIG1       -0.3566
      6 H          -0.7061    6.3758    5.3300 H       1  LIG1        0.1424
      7 H           0.2232    5.5923    4.6225 H       1  LIG1        0.1424
      8 C           1.2258    4.2280    6.5599 C.ar    1  LIG1        0.0391
      9 C           1.6756    3.7183    7.7663 C.ar    1  LIG1       -0.0449
     10 H           2.4355    3.1483    7.7910 H       1  LIG1        0.0629
     11 C           1.0082    4.0488    8.9396 C.ar    1  LIG1       -0.0460
     12 H           1.2976    3.7039    9.7768 H       1  LIG1        0.0629
     13 C          -0.0865    4.8926    8.8617 C.ar    1  LIG1        0.0275
     14 C          -0.5469    5.4365    7.6660 C.ar    1  LIG1        0.0218
     15 C           0.1384    5.0898    6.4856 C.ar    1  LIG1        0.0477
     16 C          -1.7220    6.3577    7.6106 C.ar    1  LIG1        0.0341
     17 C          -2.9933    5.8255    7.5493 C.ar    1  LIG1        0.1252
     18 C          -4.1329    6.6720    7.5634 C.ar    1  LIG1       -0.0190
     19 H          -5.0039    6.2929    7.5469 H       1  LIG1        0.0654
     20 C          -3.9836    8.0246    7.5988 C.ar    1  LIG1       -0.0505
     21 H          -4.7553    8.5784    7.6259 H       1  LIG1        0.0625
     22 C          -2.6941    8.6253    7.5953 C.ar    1  LIG1       -0.0171
     23 C          -2.5003   10.0193    7.5705 C.ar    1  LIG1       -0.0540
     24 H          -3.2583   10.5902    7.5965 H       1  LIG1        0.0624
     25 C          -1.2528   10.5731    7.5104 C.ar    1  LIG1       -0.0612
     26 H          -1.1478   11.5169    7.4856 H       1  LIG1        0.0618
     27 C          -0.1191    9.7311    7.4844 C.ar    1  LIG1       -0.0611
     28 H           0.7485   10.1121    7.4325 H       1  LIG1        0.0618
     29 C          -0.2607    8.3722    7.5351 C.ar    1  LIG1       -0.0533
     30 H           0.5143    7.8211    7.5351 H       1  LIG1        0.0624
     31 C          -1.5497    7.7707    7.5870 C.ar    1  LIG1       -0.0066
@<TRIPOS>BOND
     1     7     5    1
     2     1     8    1
     3     5     6    1
     4     5    15    1
     5    15     8   ar
     6    15    14   ar
     7     8     9   ar
     8     4     3    1
     9    28    27    1
    10    27    25   ar
    11    27    29   ar
    12    26    25    1
    13    25    23   ar
    14     3    17    1
    15    29    30    1
    16    29    31   ar
    17    19    18    1
    18    17    18   ar
    19    17    16   ar
    20    18    20   ar
    21    23    22   ar
    22    23    24    1
    23    31    22   ar
    24    31    16   ar
    25    22    20   ar
    26    20    21    1
    27    16    14    1
    28    14    13   ar
    29     9    10    1
    30     9    11   ar
    31    13    11   ar
    32    13     2    1
    33    11    12    1
