@<TRIPOS>MOLECULE
?
 100 101 0 0 0
SMALL
GASTEIGER

@<TRIPOS>ATOM
      1 BR         -2.5847   -5.3750   15.1355 Br      1  LIG1       -0.0503
      2 S          -5.2987    1.9569   12.4543 S.3     1  LIG1        0.0598
      3 O          -2.2345    0.4428   10.7640 O.2     1  LIG1       -0.2735
      4 O           2.4163    1.7720   12.4220 O.2     1  LIG1       -0.2735
      5 O          -6.1866    1.7858   13.6265 O.3     1  LIG1       -0.1408
      6 N           1.7068   -0.3538   12.2688 N.am    1  LIG1       -0.2949
      7 N          -0.8964    1.2126   12.4280 N.am    1  LIG1       -0.2909
      8 N          -4.4827    0.4724   12.2403 N.3     1  LIG1       -0.2281
      9 C           0.3905   -2.3116   13.0543 C.3     1  LIG1       -0.0467
     10 H           1.1756   -2.7998   13.3141 H       1  LIG1        0.0247
     11 H          -0.2973   -2.9283   12.7885 H       1  LIG1        0.0247
     12 H           0.0777   -1.7868   13.7948 H       1  LIG1        0.0247
     13 C           0.7280   -1.3965   11.8874 C.3     1  LIG1        0.0207
     14 H          -0.0981   -0.9409   11.6230 H       1  LIG1        0.0495
     15 C           1.5443    0.9586   12.0676 C.2     1  LIG1        0.2371
     16 C           0.2039    1.4676   11.4789 C.3     1  LIG1        0.1069
     17 H           0.0221    0.9142   10.6904 H       1  LIG1        0.0602
     18 C          -2.0565    0.7037   11.9474 C.2     1  LIG1        0.2383
     19 C          -3.2041    0.3864   12.9492 C.3     1  LIG1        0.1205
     20 H          -3.1888    1.0258   13.6911 H       1  LIG1        0.0615
     21 C          -6.2893    1.8382   10.9472 C.ar    1  LIG1        0.0481
     22 C          -6.0141    2.8137    9.9379 C.ar    1  LIG1       -0.0282
     23 C          -6.8220    2.8028    8.8265 C.ar    1  LIG1       -0.0537
     24 H          -6.6730    3.4383    8.1657 H       1  LIG1        0.0624
     25 C          -7.8588    1.8886    8.6388 C.ar    1  LIG1       -0.0442
     26 C          -8.6641    1.9133    7.3472 C.3     1  LIG1       -0.0215
     27 H          -8.4333    2.7306    6.8591 H       1  LIG1        0.0343
     28 C         -10.1746    1.9301    7.6175 C.3     1  LIG1       -0.0586
     29 H         -10.4236    1.1355    8.0951 H       1  LIG1        0.0235
     30 H         -10.6476    1.9618    6.7825 H       1  LIG1        0.0235
     31 H         -10.3975    2.7020    8.1417 H       1  LIG1        0.0235
     32 C          -8.3115    0.7205    6.4716 C.3     1  LIG1       -0.0586
     33 H          -7.3588    0.6493    6.3950 H       1  LIG1        0.0235
     34 H          -8.6940    0.8410    5.5990 H       1  LIG1        0.0235
     35 H          -8.6634   -0.0810    6.8666 H       1  LIG1        0.0235
     36 C          -0.6401    1.3797   13.8653 C.3     1  LIG1        0.0040
     37 H          -0.6942    0.5258   14.3024 H       1  LIG1        0.0429
     38 H          -1.2963    1.9726   14.2408 H       1  LIG1        0.0429
     39 H           0.2363    1.7493   13.9945 H       1  LIG1        0.0429
     40 C           2.9621   -0.8578   12.9071 C.3     1  LIG1        0.0207
     41 H           2.8848   -1.8343   12.9537 H       1  LIG1        0.0495
     42 C           3.1124   -0.3528   14.3534 C.3     1  LIG1       -0.0467
     43 H           3.1738    0.6058   14.3519 H       1  LIG1        0.0247
     44 H           3.9076   -0.7244   14.7409 H       1  LIG1        0.0247
     45 H           2.3494   -0.6236   14.8671 H       1  LIG1        0.0247
     46 C           4.2126   -0.5505   12.0691 C.3     1  LIG1       -0.0467
     47 H           4.0815   -0.8628   11.1710 H       1  LIG1        0.0247
     48 H           4.9717   -0.9942   12.4536 H       1  LIG1        0.0247
     49 H           4.3668    0.3973   12.0586 H       1  LIG1        0.0247
     50 C           1.2420   -2.1821   10.6513 C.3     1  LIG1       -0.0467
     51 H           1.4666   -1.5645    9.9499 H       1  LIG1        0.0247
     52 H           0.5582   -2.7810   10.3449 H       1  LIG1        0.0247
     53 H           2.0240   -2.6852   10.8946 H       1  LIG1        0.0247
     54 C           0.2373    2.9491   10.9772 C.3     1  LIG1       -0.0106
     55 C           0.4189    3.9749   12.1096 C.3     1  LIG1       -0.0579
     56 H          -0.3053    3.8949   12.7344 H       1  LIG1        0.0236
     57 H           0.4267    4.8614   11.7402 H       1  LIG1        0.0236
     58 H           1.2508    3.8089   12.5617 H       1  LIG1        0.0236
     59 C          -1.0651    3.2376   10.2593 C.3     1  LIG1       -0.0579
     60 H          -1.2068    2.5775    9.5775 H       1  LIG1        0.0236
     61 H          -1.0216    4.1083    9.8583 H       1  LIG1        0.0236
     62 H          -1.7906    3.2110   10.8886 H       1  LIG1        0.0236
     63 C           1.3632    3.0864    9.9409 C.3     1  LIG1       -0.0579
     64 H           2.2031    2.8581   10.3479 H       1  LIG1        0.0236
     65 H           1.3984    3.9917    9.6225 H       1  LIG1        0.0236
     66 H           1.1955    2.4954    9.2035 H       1  LIG1        0.0236
     67 C          -3.0148   -1.0278   13.4779 C.ar    1  LIG1       -0.0208
     68 C          -2.7634   -1.2541   14.8325 C.ar    1  LIG1       -0.0555
     69 H          -2.6929   -0.5307   15.4138 H       1  LIG1        0.0621
     70 C          -2.6210   -2.5409   15.3222 C.ar    1  LIG1       -0.0474
     71 H          -2.4320   -2.6842   16.2218 H       1  LIG1        0.0629
     72 C          -2.7587   -3.6152   14.4556 C.ar    1  LIG1        0.0179
     73 C          -3.0163   -3.4215   13.1039 C.ar    1  LIG1       -0.0474
     74 H          -3.0969   -4.1488   12.5302 H       1  LIG1        0.0629
     75 C          -3.1472   -2.1387   12.6293 C.ar    1  LIG1       -0.0555
     76 H          -3.3274   -2.0033   11.7267 H       1  LIG1        0.0621
     77 C          -7.3142    0.9072   10.8000 C.ar    1  LIG1       -0.0282
     78 C          -7.6406   -0.1838   11.8213 C.3     1  LIG1       -0.0204
     79 H          -6.9407   -0.1690   12.5061 H       1  LIG1        0.0344
     80 C          -8.9827    0.1097   12.5197 C.3     1  LIG1       -0.0586
     81 H          -8.8981    0.8974   13.0618 H       1  LIG1        0.0235
     82 H          -9.2254   -0.6355   13.0754 H       1  LIG1        0.0235
     83 H          -9.6658    0.2500   11.8588 H       1  LIG1        0.0235
     84 C          -7.6444   -1.5981   11.1845 C.3     1  LIG1       -0.0586
     85 H          -8.2600   -1.6159   10.4471 H       1  LIG1        0.0235
     86 H          -7.9140   -2.2434   11.8408 H       1  LIG1        0.0235
     87 H          -6.7624   -1.8105   10.8706 H       1  LIG1        0.0235
     88 C          -8.0850    0.9745    9.6255 C.ar    1  LIG1       -0.0537
     89 H          -8.7794    0.3667    9.5174 H       1  LIG1        0.0624
     90 C          -4.9213    3.8711   10.1061 C.3     1  LIG1       -0.0204
     91 H          -4.2541    3.5321   10.7399 H       1  LIG1        0.0344
     92 C          -4.2120    4.1884    8.7740 C.3     1  LIG1       -0.0586
     93 H          -3.8168    3.3859    8.4210 H       1  LIG1        0.0235
     94 H          -3.5225    4.8406    8.9257 H       1  LIG1        0.0235
     95 H          -4.8492    4.5343    8.1462 H       1  LIG1        0.0235
     96 C          -5.5346    5.1272   10.6784 C.3     1  LIG1       -0.0586
     97 H          -6.2672    5.4079   10.1227 H       1  LIG1        0.0235
     98 H          -4.8738    5.8220   10.7114 H       1  LIG1        0.0235
     99 H          -5.8589    4.9503   11.5660 H       1  LIG1        0.0235
    100 H          -4.2401    0.0494   11.3692 H       1  LIG1        0.1379
@<TRIPOS>BOND
     1    34    32    1
     2    33    32    1
     3    32    35    1
     4    32    26    1
     5    30    28    1
     6    27    26    1
     7    26    28    1
     8    26    25    1
     9    28    29    1
    10    28    31    1
    11    95    92    1
    12    24    23    1
    13    93    92    1
    14    25    23   ar
    15    25    88   ar
    16    92    94    1
    17    92    90    1
    18    23    22   ar
    19    66    63    1
    20    89    88    1
    21    60    59    1
    22    65    63    1
    23    88    77   ar
    24    61    59    1
    25    22    90    1
    26    22    21   ar
    27    63    64    1
    28    63    54    1
    29    51    50    1
    30    90    96    1
    31    90    91    1
    32    97    96    1
    33    59    62    1
    34    59    54    1
    35    52    50    1
    36    85    84    1
    37    50    53    1
    38    50    13    1
    39    96    98    1
    40    96    99    1
    41    17    16    1
    42     3    18    2
    43    77    21   ar
    44    77    78    1
    45    87    84    1
    46    21     2    1
    47    54    16    1
    48    54    55    1
    49    47    46    1
    50    84    78    1
    51    84    86    1
    52   100     8    1
    53    16    15    1
    54    16     7    1
    55    14    13    1
    56    76    75    1
    57    57    55    1
    58    78    79    1
    59    78    80    1
    60    83    80    1
    61    13     6    1
    62    13     9    1
    63    18     7   am
    64    18    19    1
    65    49    46    1
    66    15     6   am
    67    15     4    2
    68    46    48    1
    69    46    40    1
    70    55    58    1
    71    55    56    1
    72     8     2    1
    73     8    19    1
    74     6    40    1
    75     7    36    1
    76     2     5    1
    77    80    81    1
    78    80    82    1
    79    74    73    1
    80    75    73   ar
    81    75    67   ar
    82    11     9    1
    83    40    41    1
    84    40    42    1
    85    19    67    1
    86    19    20    1
    87     9    10    1
    88     9    12    1
    89    73    72   ar
    90    67    68   ar
    91    36    39    1
    92    36    38    1
    93    36    37    1
    94    43    42    1
    95    42    44    1
    96    42    45    1
    97    72     1    1
    98    72    70   ar
    99    68    70   ar
   100    68    69    1
   101    70    71    1
