@<TRIPOS>MOLECULE
2(C15 H24 N4 O), C H2 Cl2
 93 96 0 0 0
SMALL
GASTEIGER

@<TRIPOS>ATOM
      1 O           4.2908    2.5836    0.6751 O.3     1  LIG1       -0.0394
      2 O           9.6053    8.2353    4.7186 O.3     2  LIG2       -0.0808
      3 N           4.6257    5.6525    3.4567 N.ar    1  LIG1       -0.3124
      4 N           6.5815    5.9890    2.5256 N.ar    1  LIG1       -0.3124
      5 N           5.3668    4.2496    1.4954 N.2     1  LIG1       -0.0856
      6 N           4.3576    3.4491    1.6055 N.4     1  LIG1        0.0140
      7 N           7.0629   11.2787    2.6533 N.pl3   2  LIG2       -0.2923
      8 N           9.2015   11.5272    2.2354 N.pl3   2  LIG2       -0.2923
      9 N           8.4275    9.8614    3.9605 N.3     2  LIG2       -0.0613
     10 N           9.4987    9.1171    3.8184 N.4     2  LIG2        0.0511
     11 C           5.4628    5.2182    2.4675 C.ar    1  LIG1        0.2335
     12 C           5.2684    6.6839    4.1511 C.ar    1  LIG1        0.0244
     13 H           4.9155    7.1566    4.8958 H       1  LIG1        0.0825
     14 C           6.4653    6.8906    3.5816 C.ar    1  LIG1        0.0244
     15 H           7.1119    7.5316    3.8480 H       1  LIG1        0.0825
     16 C           3.2692    5.1303    3.8113 C.3     1  LIG1        0.0373
     17 H           2.9593    4.5332    3.0713 H       1  LIG1        0.0529
     18 C           3.3801    4.2913    5.0936 C.3     1  LIG1       -0.0320
     19 H           3.9735    3.5151    4.9302 H       1  LIG1        0.0285
     20 H           3.7828    4.8389    5.8123 H       1  LIG1        0.0285
     21 C           2.0006    3.7933    5.5447 C.3     1  LIG1       -0.0512
     22 H           1.6500    3.1479    4.8816 H       1  LIG1        0.0266
     23 H           2.0872    3.3249    6.4126 H       1  LIG1        0.0266
     24 C           1.0178    4.9532    5.6903 C.3     1  LIG1       -0.0529
     25 H           1.3265    5.5591    6.4102 H       1  LIG1        0.0265
     26 H           0.1273    4.6014    5.9437 H       1  LIG1        0.0265
     27 C           0.9067    5.7306    4.3784 C.3     1  LIG1       -0.0512
     28 H           0.2682    6.4805    4.4933 H       1  LIG1        0.0266
     29 H           0.5561    5.1347    3.6704 H       1  LIG1        0.0266
     30 C           2.2710    6.2814    3.9498 C.3     1  LIG1       -0.0320
     31 H           2.1856    6.7542    3.0843 H       1  LIG1        0.0285
     32 H           2.6003    6.9279    4.6235 H       1  LIG1        0.0285
     33 C           7.7036    5.9384    1.5404 C.3     1  LIG1        0.0373
     34 H           7.4508    5.2930    0.8205 H       1  LIG1        0.0529
     35 C           7.8882    7.3117    0.8927 C.3     1  LIG1       -0.0320
     36 H           8.1300    7.9769    1.5842 H       1  LIG1        0.0285
     37 H           7.0426    7.5975    0.4689 H       1  LIG1        0.0285
     38 C           8.9996    7.2413   -0.1669 C.3     1  LIG1       -0.0512
     39 H           8.7193    6.6366   -0.8987 H       1  LIG1        0.0266
     40 H           9.1442    8.1418   -0.5517 H       1  LIG1        0.0266
     41 C          10.3000    6.7333    0.4464 C.3     1  LIG1       -0.0529
     42 H          10.6252    7.3897    1.1118 H       1  LIG1        0.0265
     43 H          10.9832    6.6509   -0.2628 H       1  LIG1        0.0265
     44 C          10.1068    5.3678    1.1295 C.3     1  LIG1       -0.0512
     45 H           9.8719    4.6894    0.4476 H       1  LIG1        0.0266
     46 H          10.9546    5.0918    1.5593 H       1  LIG1        0.0266
     47 C           8.9928    5.4337    2.1880 C.3     1  LIG1       -0.0320
     48 H           8.8432    4.5343    2.5740 H       1  LIG1        0.0285
     49 H           9.2630    6.0440    2.9197 H       1  LIG1        0.0285
     50 C           8.2995   10.8246    2.9861 C.3     2  LIG2        0.2484
     51 C           7.1902   12.2473    1.6694 C.2     2  LIG2        0.0094
     52 H           6.4777   12.7223    1.2586 H       2  LIG2        0.0794
     53 C           8.5025   12.4002    1.3971 C.2     2  LIG2        0.0094
     54 H           8.8819   12.9895    0.7554 H       2  LIG2        0.0794
     55 C           5.7893   10.7839    3.2442 C.3     2  LIG2        0.0264
     56 H           5.9963   10.0055    3.8350 H       2  LIG2        0.0500
     57 C           4.8641   10.3078    2.1288 C.3     2  LIG2       -0.0343
     58 H           4.7471   11.0357    1.4693 H       2  LIG2        0.0283
     59 H           5.2810    9.5404    1.6635 H       2  LIG2        0.0283
     60 C           3.5006    9.8878    2.6581 C.3     2  LIG2       -0.0514
     61 H           3.5991    9.0896    3.2347 H       2  LIG2        0.0266
     62 H           2.9132    9.6459    1.8991 H       2  LIG2        0.0266
     63 C           2.8597   11.0236    3.4608 C.3     2  LIG2       -0.0529
     64 H           2.7083   11.8042    2.8724 H       2  LIG2        0.0265
     65 H           1.9860   10.7278    3.8184 H       2  LIG2        0.0265
     66 C           3.7718   11.4150    4.6022 C.3     2  LIG2       -0.0514
     67 H           3.8877   10.6399    5.2072 H       2  LIG2        0.0266
     68 H           3.3530   12.1451    5.1208 H       2  LIG2        0.0266
     69 C           5.1499   11.8790    4.0990 C.3     2  LIG2       -0.0343
     70 H           5.0490   12.7047    3.5615 H       2  LIG2        0.0283
     71 H           5.7339   12.0835    4.8698 H       2  LIG2        0.0283
     72 C          10.6840   11.4095    2.2437 C.3     2  LIG2        0.0264
     73 H          10.9527   10.9202    3.0737 H       2  LIG2        0.0500
     74 C          11.3436   12.7894    2.2697 C.3     2  LIG2       -0.0343
     75 H          11.0579   13.2798    3.0820 H       2  LIG2        0.0283
     76 H          11.0577   13.3105    1.4788 H       2  LIG2        0.0283
     77 C          12.8692   12.6366    2.2650 C.3     2  LIG2       -0.0514
     78 H          13.2889   13.5326    2.2555 H       2  LIG2        0.0266
     79 H          13.1533   12.1726    3.0914 H       2  LIG2        0.0266
     80 C          13.3411   11.8405    1.0467 C.3     2  LIG2       -0.0529
     81 H          14.3230   11.7295    1.0845 H       2  LIG2        0.0265
     82 H          13.1219   12.3386    0.2202 H       2  LIG2        0.0265
     83 C          12.6710   10.4584    1.0064 C.3     2  LIG2       -0.0514
     84 H          12.9467    9.9824    0.1835 H       2  LIG2        0.0266
     85 H          12.9739    9.9241    1.7843 H       2  LIG2        0.0266
     86 C          11.1405   10.5860    1.0360 C.3     2  LIG2       -0.0343
     87 H          10.8307   11.0214    0.2036 H       2  LIG2        0.0283
     88 H          10.7367    9.6833    1.0798 H       2  LIG2        0.0283
     89 C          -1.2659    9.3809   -0.2984 C.3     1  LIG1        0.0970
     90 H          -2.1844    9.0775   -0.0876 H       1  LIG1        0.0597
     91 H          -1.3201   10.3177   -0.6133 H       1  LIG1        0.0597
     92 CL         -0.2814    9.3202    1.1750 Cl      1  LIG1       -0.1083
     93 CL         -0.6132    8.3857   -1.5737 Cl      1  LIG1       -0.1083
@<TRIPOS>BOND
     1    93    89    1
     2    39    38    1
     3    91    89    1
     4    40    38    1
     5    89    90    1
     6    89    92    1
     7    43    41    1
     8    38    41    1
     9    38    35    1
    10    84    83    1
    11    87    86    1
    12    82    80    1
    13    41    42    1
    14    41    44    1
    15    45    44    1
    16    37    35    1
    17     1     6    1
    18    54    53    1
    19    34    33    1
    20    35    33    1
    21    35    36    1
    22    83    86    1
    23    83    80    1
    24    83    85    1
    25    86    88    1
    26    86    72    1
    27    80    81    1
    28    80    77    1
    29    44    46    1
    30    44    47    1
    31    52    51    1
    32    53    51    2
    33    53     8    1
    34    58    57    1
    35    76    74    1
    36     5     6    1
    37     5    11    2
    38    33    47    1
    39    33     4    1
    40    59    57    1
    41    51     7    1
    42    62    60    1
    43    57    60    1
    44    57    55    1
    45    47    48    1
    46    47    49    1
    47     8    72    1
    48     8    50    1
    49    72    74    1
    50    72    73    1
    51    78    77    1
    52    77    74    1
    53    77    79    1
    54    74    75    1
    55    11     4   ar
    56    11     3   ar
    57     4    14   ar
    58     7    50    1
    59     7    55    1
    60    60    61    1
    61    60    63    1
    62    64    63    1
    63    50     9    1
    64    17    16    1
    65    31    30    1
    66    55    56    1
    67    55    69    1
    68     3    16    1
    69     3    12   ar
    70    63    65    1
    71    63    66    1
    72    70    69    1
    73    14    15    1
    74    14    12   ar
    75    29    27    1
    76    16    30    1
    77    16    18    1
    78    10     9    1
    79    10     2    1
    80    30    27    1
    81    30    32    1
    82    69    66    1
    83    69    71    1
    84    12    13    1
    85    27    28    1
    86    27    24    1
    87    66    68    1
    88    66    67    1
    89    22    21    1
    90    19    18    1
    91    18    21    1
    92    18    20    1
    93    21    24    1
    94    21    23    1
    95    24    26    1
    96    24    25    1
