@<TRIPOS>MOLECULE
?
 97 99 0 0 0
SMALL
GASTEIGER

@<TRIPOS>ATOM
      1 C           3.7219    8.6981    4.0489 C.ar    1  LIG1       -0.0078
      2 C           4.7459    8.2119    4.8946 C.ar    1  LIG1       -0.0361
      3 C           5.6137    7.2227    4.4277 C.ar    1  LIG1       -0.0543
      4 H           6.2944    6.8972    5.0038 H       1  LIG1        0.0623
      5 C           5.5113    6.7012    3.1497 C.ar    1  LIG1       -0.0442
      6 C           4.4805    7.1473    2.3615 C.ar    1  LIG1       -0.0543
      7 H           4.3925    6.7879    1.4873 H       1  LIG1        0.0623
      8 C           3.5616    8.0975    2.7819 C.ar    1  LIG1       -0.0361
      9 C           4.9165    8.6714    6.3172 C.3     1  LIG1       -0.0209
     10 H           4.1968    9.3425    6.4996 H       1  LIG1        0.0344
     11 C           4.7420    7.5378    7.3250 C.3     1  LIG1       -0.0586
     12 H           3.7940    7.2972    7.3852 H       1  LIG1        0.0235
     13 H           5.0620    7.8299    8.2045 H       1  LIG1        0.0235
     14 H           5.2596    6.7577    7.0331 H       1  LIG1        0.0235
     15 C           6.2545    9.3697    6.5553 C.3     1  LIG1       -0.0586
     16 H           6.9856    8.7358    6.4036 H       1  LIG1        0.0235
     17 H           6.2927    9.6971    7.4790 H       1  LIG1        0.0235
     18 H           6.3433   10.1256    5.9363 H       1  LIG1        0.0235
     19 C           2.3959    8.3585    1.8654 C.3     1  LIG1       -0.0209
     20 H           1.7738    8.9744    2.3472 H       1  LIG1        0.0344
     21 C           1.6230    7.0757    1.5758 C.3     1  LIG1       -0.0586
     22 H           2.1181    6.5359    0.9261 H       1  LIG1        0.0235
     23 H           0.7413    7.3005    1.2099 H       1  LIG1        0.0235
     24 H           1.5120    6.5661    2.4048 H       1  LIG1        0.0235
     25 C           2.7868    9.0441    0.5591 C.3     1  LIG1       -0.0586
     26 H           3.3421    9.8281    0.7554 H       1  LIG1        0.0235
     27 H           1.9769    9.3273    0.0854 H       1  LIG1        0.0235
     28 H           3.2911    8.4181    0.0000 H       1  LIG1        0.0235
     29 C           6.4893    5.6710    2.6312 C.3     1  LIG1       -0.0215
     30 H           6.3650    5.6149    1.6409 H       1  LIG1        0.0343
     31 C           7.9481    6.0686    2.8868 C.3     1  LIG1       -0.0586
     32 H           7.9739    6.9258    3.3608 H       1  LIG1        0.0235
     33 H           8.4186    6.1527    2.0314 H       1  LIG1        0.0235
     34 H           8.3835    5.3813    3.4333 H       1  LIG1        0.0235
     35 C           6.1862    4.3077    3.2009 C.3     1  LIG1       -0.0586
     36 H           6.2199    4.3477    4.1802 H       1  LIG1        0.0235
     37 H           6.8494    3.6637    2.8764 H       1  LIG1        0.0235
     38 H           5.2909    4.0267    2.9169 H       1  LIG1        0.0235
     39 C           2.3057   11.2494    3.1941 C.ar    1  LIG1       -0.0078
     40 C           3.2738   12.0242    2.5179 C.ar    1  LIG1       -0.0361
     41 C           2.8680   12.9302    1.5364 C.ar    1  LIG1       -0.0543
     42 H           3.5243   13.4364    1.0733 H       1  LIG1        0.0623
     43 C           1.5335   13.1070    1.2225 C.ar    1  LIG1       -0.0442
     44 C           0.6087   12.3448    1.8720 C.ar    1  LIG1       -0.0543
     45 H          -0.3090   12.4499    1.6494 H       1  LIG1        0.0623
     46 C           0.9611   11.4131    2.8548 C.ar    1  LIG1       -0.0361
     47 C          -0.1797   10.6162    3.4329 C.3     1  LIG1       -0.0209
     48 H           0.2113    9.9189    4.0329 H       1  LIG1        0.0344
     49 C          -1.0790   11.5091    4.2828 C.3     1  LIG1       -0.0586
     50 H          -0.5301   12.0180    4.9142 H       1  LIG1        0.0235
     51 H          -1.7170   10.9542    4.7776 H       1  LIG1        0.0235
     52 H          -1.5673   12.1289    3.7022 H       1  LIG1        0.0235
     53 C          -0.9942    9.8974    2.3538 C.3     1  LIG1       -0.0586
     54 H          -1.3996   10.5592    1.7561 H       1  LIG1        0.0235
     55 H          -1.6988    9.3643    2.7782 H       1  LIG1        0.0235
     56 H          -0.4040    9.3088    1.8372 H       1  LIG1        0.0235
     57 C           4.7457   11.9405    2.8062 C.3     1  LIG1       -0.0209
     58 H           4.8948   11.1592    3.4120 H       1  LIG1        0.0344
     59 C           5.2213   13.2057    3.5419 C.3     1  LIG1       -0.0586
     60 H           5.1578   13.9759    2.9404 H       1  LIG1        0.0235
     61 H           6.1516   13.0885    3.8259 H       1  LIG1        0.0235
     62 H           4.6561   13.3574    4.3274 H       1  LIG1        0.0235
     63 C           5.5972   11.7259    1.5474 C.3     1  LIG1       -0.0586
     64 H           5.4132   10.8382    1.1757 H       1  LIG1        0.0235
     65 H           6.5465   11.7928    1.7796 H       1  LIG1        0.0235
     66 H           5.3750   12.4112    0.8813 H       1  LIG1        0.0235
     67 C           1.1443   14.1184    0.1658 C.3     1  LIG1       -0.0215
     68 H           1.8600   13.8918   -0.4950 H       1  LIG1        0.0343
     69 C          -0.0276   13.7710   -0.6978 C.3     1  LIG1       -0.0586
     70 H           0.2861   13.3171   -1.5065 H       1  LIG1        0.0235
     71 H          -0.5044   14.5910   -0.9474 H       1  LIG1        0.0235
     72 H          -0.6323   13.1776   -0.2048 H       1  LIG1        0.0235
     73 C           1.5965   15.5056    0.4643 C.3     1  LIG1       -0.0586
     74 H           1.0226   15.8934    1.1565 H       1  LIG1        0.0235
     75 H           1.5406   16.0497   -0.3499 H       1  LIG1        0.0235
     76 H           2.5239   15.4867    0.7810 H       1  LIG1        0.0235
     77 C           1.6869   10.0043    5.8827 C.ar    1  LIG1       -0.0088
     78 C           1.4509   11.1148    6.7154 C.ar    1  LIG1       -0.0417
     79 C           0.6060   10.9936    7.8262 C.ar    1  LIG1       -0.0553
     80 H           0.4401   11.7592    8.3646 H       1  LIG1        0.0623
     81 C           0.0139    9.8129    8.1580 C.ar    1  LIG1       -0.0499
     82 C           0.2159    8.7346    7.3248 C.ar    1  LIG1       -0.0553
     83 H          -0.2293    7.9173    7.5175 H       1  LIG1        0.0623
     84 C           1.0516    8.7986    6.2088 C.ar    1  LIG1       -0.0417
     85 C           1.1613    7.5397    5.3683 C.3     1  LIG1       -0.0391
     86 H           1.0116    7.7627    4.4255 H       1  LIG1        0.0278
     87 H           0.4869    6.8921    5.6610 H       1  LIG1        0.0278
     88 H           2.0545    7.1526    5.4754 H       1  LIG1        0.0278
     89 C           2.0557   12.4669    6.4309 C.3     1  LIG1       -0.0391
     90 H           1.5654   12.8969    5.6994 H       1  LIG1        0.0278
     91 H           2.9955   12.3575    6.1753 H       1  LIG1        0.0278
     92 H           1.9990   13.0263    7.2337 H       1  LIG1        0.0278
     93 C          -0.8827    9.7117    9.3771 C.3     1  LIG1       -0.0397
     94 H          -0.3549    9.8836   10.1847 H       1  LIG1        0.0278
     95 H          -1.2686    8.8131    9.4251 H       1  LIG1        0.0278
     96 H          -1.6023   10.3727    9.3099 H       1  LIG1        0.0278
     97 P           2.9901   10.2863    4.6229 P.3     1  LIG1       -0.0115
@<TRIPOS>BOND
     1    70    69    1
     2    71    69    1
     3    69    72    1
     4    69    67    1
     5    68    67    1
     6    75    73    1
     7    28    25    1
     8    27    25    1
     9    67    73    1
    10    67    43    1
    11    73    76    1
    12    73    74    1
    13    25    26    1
    14    25    19    1
    15    66    63    1
    16    22    21    1
    17    42    41    1
    18    64    63    1
    19    23    21    1
    20    43    41   ar
    21    43    44   ar
    22     7     6    1
    23    41    40   ar
    24    63    65    1
    25    63    57    1
    26    21    19    1
    27    21    24    1
    28    30    29    1
    29    45    44    1
    30    54    53    1
    31    56    53    1
    32    19    20    1
    33    19     8    1
    34    44    46   ar
    35    33    31    1
    36    53    55    1
    37    53    47    1
    38     6     8   ar
    39     6     5   ar
    40    40    57    1
    41    40    39   ar
    42    29    31    1
    43    29     5    1
    44    29    35    1
    45     8     1   ar
    46    57    58    1
    47    57    59    1
    48    46    39   ar
    49    46    47    1
    50    37    35    1
    51    31    32    1
    52    31    34    1
    53    38    35    1
    54    60    59    1
    55     5     3   ar
    56    39    97    1
    57    35    36    1
    58    47    48    1
    59    47    49    1
    60    59    61    1
    61    59    62    1
    62    52    49    1
    63     1    97    1
    64     1     2   ar
    65    49    51    1
    66    49    50    1
    67    86    85    1
    68     3     2   ar
    69     3     4    1
    70    97    77    1
    71     2     9    1
    72    85    88    1
    73    85    87    1
    74    85    84    1
    75    90    89    1
    76    77    84   ar
    77    77    78   ar
    78    18    15    1
    79    91    89    1
    80    84    82   ar
    81     9    10    1
    82     9    15    1
    83     9    11    1
    84    16    15    1
    85    89    78    1
    86    89    92    1
    87    15    17    1
    88    78    79   ar
    89    14    11    1
    90    82    83    1
    91    82    81   ar
    92    11    12    1
    93    11    13    1
    94    79    81   ar
    95    79    80    1
    96    81    93    1
    97    96    93    1
    98    93    95    1
    99    93    94    1
