@<TRIPOS>MOLECULE
C13 H18 Br N O2
 35 36 0 0 0
SMALL
GASTEIGER

@<TRIPOS>ATOM
      1 BR          4.0344    5.0583   13.0090 Br      1  LIG1       -0.0854
      2 O           1.5516    7.9569   11.3642 O.3     1  LIG1       -0.3693
      3 O           0.4135   10.6235   10.8975 O.3     1  LIG1       -0.3559
      4 N           0.3297   11.9725    7.8270 N.1     1  LIG1       -0.1938
      5 C           2.0199    9.4680    9.5833 C.3     1  LIG1        0.0155
      6 C           1.5811   10.3879   11.6940 C.3     1  LIG1        0.0899
      7 C           2.1182    7.0108   12.2836 C.3     1  LIG1        0.0749
      8 C           3.5559    6.6358   11.9138 C.3     1  LIG1        0.0411
      9 C           0.6355   10.0880    9.5939 C.3     1  LIG1        0.1471
     10 C           2.2507    9.1682   11.0630 C.3     1  LIG1        0.0888
     11 C           2.3693    9.8608   13.9798 C.2     1  LIG1       -0.0853
     12 C           1.9107    7.4171   13.7570 C.3     1  LIG1       -0.0073
     13 C           2.6906    8.6166   14.2182 C.2     1  LIG1       -0.0854
     14 C           3.8080    6.3182   10.4484 C.3     1  LIG1       -0.0410
     15 C           1.1851   10.2629   13.1390 C.3     1  LIG1       -0.0059
     16 C           0.4580   11.1616    8.6007 C.1     1  LIG1        0.0942
     17 C           2.8920    5.3063    9.8174 C.3     1  LIG1       -0.0642
     18 H           2.6824   10.0889    9.2400 H       1  LIG1        0.0326
     19 H           2.0391    8.6563    9.0510 H       1  LIG1        0.0326
     20 H           2.1824   11.1557   11.6026 H       1  LIG1        0.0625
     21 H           1.5971    6.1890   12.1666 H       1  LIG1        0.0610
     22 H           4.1418    7.3774   12.1727 H       1  LIG1        0.0443
     23 H          -0.0269    9.3861    9.4229 H       1  LIG1        0.0756
     24 H           3.2030    9.1116   11.2855 H       1  LIG1        0.0623
     25 H           2.8516   10.6007   14.2944 H       1  LIG1        0.0570
     26 H           0.9673    7.5945   13.8951 H       1  LIG1        0.0333
     27 H           2.1498    6.6628   14.3188 H       1  LIG1        0.0333
     28 H           3.4778    8.4215   14.6663 H       1  LIG1        0.0570
     29 H           3.7407    7.1443    9.9442 H       1  LIG1        0.0274
     30 H           4.7199    5.9989   10.3588 H       1  LIG1        0.0274
     31 H           0.4844    9.5981   13.2274 H       1  LIG1        0.0333
     32 H           0.8368   11.1118   13.4530 H       1  LIG1        0.0333
     33 H           2.9334    4.4844   10.3131 H       1  LIG1        0.0230
     34 H           3.1668    5.1475    8.9108 H       1  LIG1        0.0230
     35 H           1.9920    5.6399    9.8253 H       1  LIG1        0.0230
@<TRIPOS>BOND
     1     4    16    3
     2    16     9    1
     3    34    17    1
     4    19     5    1
     5    18     5    1
     6    23     9    1
     7     5     9    1
     8     5    10    1
     9     9     3    1
    10    17    35    1
    11    17    33    1
    12    17    14    1
    13    29    14    1
    14    30    14    1
    15    14     8    1
    16     3     6    1
    17    10    24    1
    18    10     2    1
    19    10     6    1
    20     2     7    1
    21    20     6    1
    22     6    15    1
    23     8    22    1
    24     8     7    1
    25     8     1    1
    26    21     7    1
    27     7    12    1
    28    15    31    1
    29    15    32    1
    30    15    11    1
    31    12    26    1
    32    12    13    1
    33    12    27    1
    34    11    13    2
    35    11    25    1
    36    13    28    1
