@<TRIPOS>MOLECULE
C17 H16 Cl N O
 36 38 0 0 0
SMALL
GASTEIGER

@<TRIPOS>ATOM
      1 CL          6.2100    6.8579    4.9545 Cl      1  LIG1       -0.1154
      2 O           7.2294    9.2175    6.8032 O.2     1  LIG1       -0.4666
      3 N           7.3044    9.9217    4.5522 N.2     1  LIG1       -0.2456
      4 C           7.8628    7.5728    5.1130 C.3     1  LIG1        0.0970
      5 H           8.5444    6.8676    4.9188 H       1  LIG1        0.0527
      6 C           8.0629    8.7338    4.1545 C.3     1  LIG1        0.0717
      7 H           9.0313    8.9800    4.1949 H       1  LIG1        0.0558
      8 C           6.9637   10.0570    5.7602 C.2     1  LIG1        0.2185
      9 C           8.0416    8.0542    6.5469 C.3     1  LIG1        0.1449
     10 H           7.7336    7.3238    7.1565 H       1  LIG1        0.0800
     11 C           7.7496    8.4080    2.7021 C.3     1  LIG1       -0.0410
     12 H           6.7893    8.2374    2.6049 H       1  LIG1        0.0251
     13 H           8.2519    7.6112    2.4300 H       1  LIG1        0.0251
     14 H           8.0058    9.1652    2.1355 H       1  LIG1        0.0251
     15 C           6.2179   11.2662    6.2045 C.ar    1  LIG1        0.0362
     16 C           6.1666   11.6291    7.5487 C.ar    1  LIG1       -0.0495
     17 H           6.5535   11.0672    8.2096 H       1  LIG1        0.0625
     18 C           5.5474   12.8155    7.9165 C.ar    1  LIG1       -0.0610
     19 H           5.5246   13.0724    8.8314 H       1  LIG1        0.0618
     20 C           4.9641   13.6247    6.9596 C.ar    1  LIG1       -0.0617
     21 H           4.5414   14.4352    7.2189 H       1  LIG1        0.0618
     22 C           4.9952   13.2583    5.6321 C.ar    1  LIG1       -0.0610
     23 H           4.5879   13.8140    4.9777 H       1  LIG1        0.0618
     24 C           5.6159   12.0855    5.2493 C.ar    1  LIG1       -0.0495
     25 H           5.6328   11.8361    4.3334 H       1  LIG1        0.0625
     26 C           9.5057    8.3263    6.8476 C.ar    1  LIG1       -0.0058
     27 C          10.3328    7.2532    7.1247 C.ar    1  LIG1       -0.0550
     28 H           9.9697    6.3769    7.1721 H       1  LIG1        0.0621
     29 C          11.6950    7.4497    7.3348 C.ar    1  LIG1       -0.0614
     30 H          12.2582    6.7057    7.5116 H       1  LIG1        0.0618
     31 C          12.2278    8.7162    7.2877 C.ar    1  LIG1       -0.0617
     32 H          13.1568    8.8485    7.4371 H       1  LIG1        0.0618
     33 C          11.4112    9.7900    7.0232 C.ar    1  LIG1       -0.0614
     34 H          11.7771   10.6656    6.9937 H       1  LIG1        0.0618
     35 C          10.0517    9.6006    6.7996 C.ar    1  LIG1       -0.0550
     36 H           9.4946   10.3469    6.6127 H       1  LIG1        0.0621
@<TRIPOS>BOND
     1    14    11    1
     2    13    11    1
     3    12    11    1
     4    11     6    1
     5     6     7    1
     6     6     3    1
     7     6     4    1
     8    25    24    1
     9     3     8    2
    10     5     4    1
    11     1     4    1
    12    23    22    1
    13     4     9    1
    14    24    22   ar
    15    24    15   ar
    16    22    20   ar
    17     8    15    1
    18     8     2    1
    19    15    16   ar
    20     9     2    1
    21     9    26    1
    22     9    10    1
    23    36    35    1
    24    35    26   ar
    25    35    33   ar
    26    26    27   ar
    27    20    21    1
    28    20    18   ar
    29    34    33    1
    30    33    31   ar
    31    27    28    1
    32    27    29   ar
    33    31    29   ar
    34    31    32    1
    35    29    30    1
    36    16    18   ar
    37    16    17    1
    38    18    19    1
