@<TRIPOS>MOLECULE
?
 32 34 0 0 0
SMALL
GASTEIGER

@<TRIPOS>ATOM
      1 BR          6.9752    8.2421   16.7469 Br      1  LIG1       -0.0503
      2 O           4.4336    3.9356    9.8168 O.3     1  LIG1       -0.4255
      3 O           3.3703    4.3016   11.6923 O.2     1  LIG1       -0.2504
      4 C           6.8966    6.9958   15.2974 C.ar    1  LIG1        0.0179
      5 C           5.6767    6.5174   14.8866 C.ar    1  LIG1       -0.0475
      6 H           4.8783    6.7880   15.3234 H       1  LIG1        0.0629
      7 C           5.6323    5.6288   13.8137 C.ar    1  LIG1       -0.0572
      8 H           4.7928    5.2972   13.5180 H       1  LIG1        0.0621
      9 C           6.7844    5.2212   13.1738 C.ar    1  LIG1       -0.0434
     10 C           8.0023    5.7137   13.6278 C.ar    1  LIG1       -0.0572
     11 H           8.8048    5.4369   13.2000 H       1  LIG1        0.0621
     12 C           8.0707    6.6067   14.6985 C.ar    1  LIG1       -0.0475
     13 H           8.9068    6.9374   15.0054 H       1  LIG1        0.0629
     14 C           6.7926    4.2813   11.9705 C.3     1  LIG1       -0.0017
     15 H           7.6034    3.7021   12.0509 H       1  LIG1        0.0357
     16 C           5.5666    3.3467   11.9008 C.3     1  LIG1        0.0524
     17 H           5.8375    2.5049   11.4573 H       1  LIG1        0.0384
     18 H           5.2902    3.1212   12.8259 H       1  LIG1        0.0384
     19 C           4.3850    3.9090   11.1751 C.2     1  LIG1        0.3129
     20 C           5.5967    3.5837    9.1121 C.ar    1  LIG1        0.1348
     21 C           5.4571    2.7145    8.0638 C.ar    1  LIG1       -0.0190
     22 H           4.6114    2.3290    7.8689 H       1  LIG1        0.0654
     23 C           6.5559    2.4068    7.2977 C.ar    1  LIG1       -0.0583
     24 H           6.4745    1.7985    6.5742 H       1  LIG1        0.0619
     25 C           7.7690    2.9780    7.5800 C.ar    1  LIG1       -0.0613
     26 H           8.5209    2.7790    7.0357 H       1  LIG1        0.0618
     27 C           7.9072    3.8480    8.6596 C.ar    1  LIG1       -0.0551
     28 H           8.7576    4.2247    8.8545 H       1  LIG1        0.0621
     29 C           6.8186    4.1681    9.4514 C.ar    1  LIG1       -0.0044
     30 C           6.9274    5.0771   10.6554 C.3     1  LIG1       -0.0169
     31 H           6.2165    5.7650   10.6128 H       1  LIG1        0.0320
     32 H           7.8025    5.5404   10.6397 H       1  LIG1        0.0320
@<TRIPOS>BOND
     1    24    23    1
     2    26    25    1
     3    23    25   ar
     4    23    21   ar
     5    25    27   ar
     6    22    21    1
     7    21    20   ar
     8    27    28    1
     9    27    29   ar
    10    20    29   ar
    11    20     2    1
    12    29    30    1
    13     2    19    1
    14    31    30    1
    15    32    30    1
    16    30    14    1
    17    19     3    2
    18    19    16    1
    19    17    16    1
    20    16    14    1
    21    16    18    1
    22    14    15    1
    23    14     9    1
    24     9    10   ar
    25     9     7   ar
    26    11    10    1
    27     8     7    1
    28    10    12   ar
    29     7     5   ar
    30    12    13    1
    31    12     4   ar
    32     5     4   ar
    33     5     6    1
    34     4     1    1
