@<TRIPOS>MOLECULE
?
 41 41 0 0 0
SMALL
GASTEIGER

@<TRIPOS>ATOM
      1 O           1.8597    0.5442   -3.3596 O.3     1  LIG1       -0.4546
      2 O           2.7058    0.3912    0.4420 O.3     1  LIG1       -0.4132
      3 O           3.6495    1.5029   -1.2672 O.2     1  LIG1       -0.2257
      4 O           3.7976   -2.4589   -0.0530 O.3     1  LIG1       -0.3660
      5 H           3.6099   -3.2491    0.0626 H       1  LIG1        0.2123
      6 O           0.7002   -0.7205    0.2706 O.3     1  LIG1       -0.3392
      7 N           3.1327   -0.7292   -1.4136 N.am    1  LIG1       -0.1960
      8 O           3.3569   -0.0512   -4.9494 O.2     1  LIG1       -0.2435
      9 C           2.0307   -0.8866    0.5960 C.3     1  LIG1        0.2602
     10 C           1.6838   -2.7134   -1.1776 C.3     1  LIG1       -0.0119
     11 H           0.9212   -2.2152   -1.4819 H       1  LIG1        0.0276
     12 H           1.4007   -3.3752   -0.5421 H       1  LIG1        0.0276
     13 H           2.1025   -3.1454   -1.9258 H       1  LIG1        0.0276
     14 C           2.6691   -1.7744   -0.5219 C.3     1  LIG1        0.2056
     15 C           3.5620   -0.9415   -2.7549 C.2     1  LIG1        0.1192
     16 C           3.2011    0.4720   -0.8175 C.2     1  LIG1        0.4123
     17 C           2.2920   -1.3648    2.0009 C.3     1  LIG1        0.0059
     18 H           3.2378   -1.4510    2.1386 H       1  LIG1        0.0294
     19 H           1.8696   -2.2164    2.1328 H       1  LIG1        0.0294
     20 H           1.9346   -0.7292    2.6268 H       1  LIG1        0.0294
     21 C           2.9136   -0.0949   -3.8199 C.2     1  LIG1        0.3538
     22 C           4.4154   -1.8818   -3.0871 C.2     1  LIG1       -0.0700
     23 H           4.7665   -2.4424   -2.4333 H       1  LIG1        0.0555
     24 H           4.6689   -1.9866   -3.9749 H       1  LIG1        0.0555
     25 C           0.4054    0.8828   -5.2816 C.3     1  LIG1       -0.0254
     26 H           1.0348    0.5120   -5.9055 H       1  LIG1        0.0268
     27 H          -0.1530    1.5209   -5.7322 H       1  LIG1        0.0268
     28 H          -0.1397    0.1798   -4.9214 H       1  LIG1        0.0268
     29 C           1.1433    1.5621   -4.1713 C.3     1  LIG1        0.1056
     30 C           2.1197    2.6135   -4.6586 C.3     1  LIG1       -0.0254
     31 H           2.5581    3.0168   -3.9056 H       1  LIG1        0.0268
     32 H           1.6446    3.2878   -5.1506 H       1  LIG1        0.0268
     33 H           2.7742    2.2039   -5.2286 H       1  LIG1        0.0268
     34 C          -0.0652    0.1099    1.1410 C.3     1  LIG1        0.0409
     35 H          -0.9698    0.1586    0.8233 H       1  LIG1        0.0525
     36 H           0.3156    0.9915    1.1584 H       1  LIG1        0.0525
     37 H          -0.0566   -0.2597    2.0269 H       1  LIG1        0.0525
     38 C           0.1824    2.1427   -3.1641 C.3     1  LIG1       -0.0254
     39 H           0.6762    2.5748   -2.4631 H       1  LIG1        0.0268
     40 H          -0.3553    1.4397   -2.7924 H       1  LIG1        0.0268
     41 H          -0.3852    2.7846   -3.5974 H       1  LIG1        0.0268
@<TRIPOS>BOND
     1    26    25    1
     2    27    25    1
     3    25    28    1
     4    25    29    1
     5    33    30    1
     6    32    30    1
     7     8    21    2
     8    30    29    1
     9    30    31    1
    10    29     1    1
    11    29    38    1
    12    24    22    1
    13    21     1    1
    14    21    15    1
    15    41    38    1
    16    38    40    1
    17    38    39    1
    18    22    15    2
    19    22    23    1
    20    15     7    1
    21    13    10    1
    22    11    10    1
    23     7    16   am
    24     7    14    1
    25     3    16    2
    26    10    12    1
    27    10    14    1
    28    16     2    1
    29    14     4    1
    30    14     9    1
    31     4     5    1
    32     6     9    1
    33     6    34    1
    34     2     9    1
    35     9    17    1
    36    35    34    1
    37    34    36    1
    38    34    37    1
    39    17    19    1
    40    17    18    1
    41    17    20    1
