@<TRIPOS>MOLECULE
?
 164 176 0 0 0
SMALL
GASTEIGER

@<TRIPOS>ATOM
      1 BR          0.9178    4.8199    9.6634 Br      1  LIG1       -0.0503
      2 BR          9.8254    1.9956   14.2928 Br      2  LIG2       -0.0503
      3 BR         -7.5250   11.3470   13.4477 Br      3  LIG3       -0.0503
      4 BR          7.5301   13.5520   -0.4349 Br      4  LIG4       -0.0503
      5 C           6.3908    7.1493    4.7792 C.3     1  LIG1       -0.0444
      6 H           5.8674    6.4932    4.2531 H       1  LIG1        0.0272
      7 H           5.9143    8.0168    4.7403 H       1  LIG1        0.0272
      8 C           7.7612    7.3106    4.1420 C.3     1  LIG1       -0.0524
      9 H           7.6572    7.5571    3.1880 H       1  LIG1        0.0265
     10 H           8.2564    8.0372    4.5958 H       1  LIG1        0.0265
     11 C           8.5428    6.0186    4.2476 C.3     1  LIG1       -0.0513
     12 H           9.4195    6.1187    3.7974 H       1  LIG1        0.0266
     13 H           8.0468    5.2883    3.8011 H       1  LIG1        0.0266
     14 C           8.7542    5.6776    5.7128 C.3     1  LIG1       -0.0320
     15 H           9.3012    6.3857    6.1352 H       1  LIG1        0.0284
     16 H           9.2578    4.8268    5.7776 H       1  LIG1        0.0284
     17 C           7.4361    5.5367    6.4871 C.3     1  LIG1        0.0530
     18 H           7.0065    4.6562    6.2852 H       1  LIG1        0.0524
     19 C           7.6002    7.0251    8.2988 C.ar    1  LIG1        0.0551
     20 C           8.1114    7.6720    9.4139 C.ar    1  LIG1       -0.0388
     21 H           8.5664    7.1975   10.1012 H       1  LIG1        0.0637
     22 C           7.9202    9.0715    9.4806 C.ar    1  LIG1       -0.0599
     23 H           8.2748    9.5590   10.2142 H       1  LIG1        0.0618
     24 C           7.2269    9.7425    8.4933 C.ar    1  LIG1       -0.0614
     25 H           7.0850   10.6786    8.5729 H       1  LIG1        0.0618
     26 C           6.7336    9.0641    7.3855 C.ar    1  LIG1       -0.0564
     27 H           6.2726    9.5349    6.7020 H       1  LIG1        0.0621
     28 C           6.9220    7.6869    7.2874 C.ar    1  LIG1       -0.0199
     29 C           6.4548    6.6822    6.2333 C.3     1  LIG1        0.0062
     30 H           5.5426    6.3671    6.4927 H       1  LIG1        0.0368
     31 C           5.5144    4.6025    9.1416 C.ar    1  LIG1        0.1088
     32 C           4.7050    3.9630    8.2228 C.ar    1  LIG1       -0.0340
     33 H           5.0867    3.4662    7.5115 H       1  LIG1        0.0637
     34 C           3.3232    4.0575    8.3543 C.ar    1  LIG1       -0.0459
     35 H           2.7464    3.6497    7.7190 H       1  LIG1        0.0629
     36 C           2.8055    4.7600    9.4361 C.ar    1  LIG1        0.0180
     37 C           3.6252    5.4088   10.3457 C.ar    1  LIG1       -0.0459
     38 H           3.2505    5.9056   11.0644 H       1  LIG1        0.0629
     39 C           4.9967    5.3235   10.1919 C.ar    1  LIG1       -0.0340
     40 H           5.5758    5.7591   10.8069 H       1  LIG1        0.0637
     41 C           1.8220   -1.2364   10.6347 C.3     2  LIG2       -0.0444
     42 H           1.5405   -2.1687   10.4605 H       2  LIG2        0.0272
     43 H           1.1768   -0.8378   11.2719 H       2  LIG2        0.0272
     44 C           1.7842   -0.4578    9.3417 C.3     2  LIG2       -0.0524
     45 H           0.8765   -0.4949    8.9490 H       2  LIG2        0.0265
     46 H           2.4214   -0.8471    8.6933 H       2  LIG2        0.0265
     47 C           2.1668    0.9954    9.6492 C.3     2  LIG2       -0.0513
     48 H           2.1120    1.5403    8.8249 H       2  LIG2        0.0266
     49 H           1.5418    1.3754   10.3160 H       2  LIG2        0.0266
     50 C           3.5902    1.0232   10.1956 C.3     2  LIG2       -0.0320
     51 H           4.2101    0.7266    9.4825 H       2  LIG2        0.0284
     52 H           3.8241    1.9555   10.4272 H       2  LIG2        0.0284
     53 C           3.7986    0.1557   11.4090 C.3     2  LIG2        0.0530
     54 H           4.7823    0.0760   11.5683 H       2  LIG2        0.0524
     55 C           3.0286   -0.5505   13.5188 C.ar    2  LIG2        0.0551
     56 C           2.7732   -0.6970   14.8804 C.ar    2  LIG2       -0.0388
     57 H           2.6856    0.0649   15.4416 H       2  LIG2        0.0637
     58 C           2.6484   -1.9889   15.4083 C.ar    2  LIG2       -0.0599
     59 H           2.5064   -2.1057   16.3401 H       2  LIG2        0.0618
     60 C           2.7281   -3.0733   14.5988 C.ar    2  LIG2       -0.0614
     61 H           2.6371   -3.9370   14.9841 H       2  LIG2        0.0618
     62 C           2.9350   -2.9806   13.2558 C.ar    2  LIG2       -0.0564
     63 H           2.9625   -3.7554   12.7038 H       2  LIG2        0.0621
     64 C           3.1078   -1.6812   12.7112 C.ar    2  LIG2       -0.0199
     65 C           3.2300   -1.2419   11.2756 C.3     2  LIG2        0.0062
     66 H           3.8539   -1.8369   10.7680 H       2  LIG2        0.0368
     67 C           5.2284    2.1502   13.6411 C.ar    2  LIG2        0.1088
     68 C           5.7201    1.6553   14.8322 C.ar    2  LIG2       -0.0340
     69 H           5.1250    1.3383   15.4991 H       2  LIG2        0.0637
     70 C           7.1034    1.6238   15.0508 C.ar    2  LIG2       -0.0459
     71 H           7.4580    1.2920   15.8658 H       2  LIG2        0.0629
     72 C           7.9454    2.0872   14.0505 C.ar    2  LIG2        0.0180
     73 C           7.4646    2.6303   12.8557 C.ar    2  LIG2       -0.0459
     74 H           8.0640    2.9787   12.2073 H       2  LIG2        0.0629
     75 C           6.0898    2.6469   12.6352 C.ar    2  LIG2       -0.0340
     76 H           5.7367    2.9861   11.8220 H       2  LIG2        0.0637
     77 C          -1.3068    8.1354   18.0054 C.3     3  LIG3       -0.0444
     78 H          -1.8719    8.6378   18.6444 H       3  LIG3        0.0272
     79 H          -1.6136    7.1938   18.0072 H       3  LIG3        0.0272
     80 C           0.1376    8.1874   18.4740 C.3     3  LIG3       -0.0524
     81 H           0.6916    7.5923   17.9090 H       3  LIG3        0.0265
     82 H           0.1966    7.8685   19.4095 H       3  LIG3        0.0265
     83 C           0.6678    9.6202   18.3851 C.3     3  LIG3       -0.0513
     84 H           0.1157   10.2207   18.9464 H       3  LIG3        0.0266
     85 H           1.6012    9.6573   18.7130 H       3  LIG3        0.0266
     86 C           0.6103   10.0669   16.9402 C.3     3  LIG3       -0.0320
     87 H           1.2045    9.4867   16.4012 H       3  LIG3        0.0284
     88 H           0.9523   10.9937   16.8754 H       3  LIG3        0.0284
     89 C          -0.8125   10.0150   16.3493 C.3     3  LIG3        0.0530
     90 H          -1.3643   10.7805   16.6809 H       3  LIG3        0.0524
     91 C          -0.6196    8.7156   14.3987 C.ar    3  LIG3        0.0551
     92 C          -0.1871    8.2615   13.1687 C.ar    3  LIG3       -0.0388
     93 H           0.0635    8.8565   12.4722 H       3  LIG3        0.0637
     94 C          -0.1416    6.8713   13.0150 C.ar    3  LIG3       -0.0599
     95 H           0.1193    6.5006   12.1814 H       3  LIG3        0.0618
     96 C          -0.4680    6.0409   14.0486 C.ar    3  LIG3       -0.0614
     97 H          -0.3913    5.1011   13.9282 H       3  LIG3        0.0618
     98 C          -0.9095    6.5302   15.2675 C.ar    3  LIG3       -0.0564
     99 H          -1.1477    5.9371   15.9696 H       3  LIG3        0.0621
    100 C          -0.9927    7.8722   15.4361 C.ar    3  LIG3       -0.0199
    101 C          -1.4959    8.7175   16.6087 C.3     3  LIG3        0.0062
    102 H          -2.4759    8.8639   16.4734 H       3  LIG3        0.0368
    103 C          -2.9155   11.3144   13.8449 C.ar    3  LIG3        0.1088
    104 C          -3.5003   10.8361   12.6871 C.ar    3  LIG3       -0.0340
    105 H          -2.9563   10.5043   11.9832 H       3  LIG3        0.0637
    106 C          -4.8970   10.8417   12.5519 C.ar    3  LIG3       -0.0459
    107 H          -5.3140   10.5284   11.7591 H       3  LIG3        0.0629
    108 C          -5.6468   11.3181   13.6115 C.ar    3  LIG3        0.0180
    109 C          -5.0814   11.8093   14.7711 C.ar    3  LIG3       -0.0459
    110 H          -5.6289   12.1485   15.4694 H       3  LIG3        0.0629
    111 C          -3.6788   11.8000   14.8989 C.ar    3  LIG3       -0.0340
    112 H          -3.2623   12.1207   15.6899 H       3  LIG3        0.0637
    113 C           1.1362   18.2005    1.5708 C.ar    4  LIG4       -0.0564
    114 H           1.4476   18.7751    2.2599 H       4  LIG4        0.0621
    115 C           0.6313   18.7362    0.3964 C.ar    4  LIG4       -0.0614
    116 H           0.5901   19.6760    0.2742 H       4  LIG4        0.0618
    117 C           0.1891   17.8835   -0.5928 C.ar    4  LIG4       -0.0599
    118 H          -0.1316   18.2505   -1.4078 H       4  LIG4        0.0618
    119 C           0.1979   16.4915   -0.4335 C.ar    4  LIG4       -0.0388
    120 H          -0.1178   15.9057   -1.1133 H       4  LIG4        0.0637
    121 C           0.6881   16.0225    0.7558 C.ar    4  LIG4        0.0551
    122 C           0.9214   14.7269    2.6971 C.3     4  LIG4        0.0530
    123 H           1.4397   13.9298    3.0065 H       4  LIG4        0.0524
    124 C          -0.4646   14.7769    3.3640 C.3     4  LIG4       -0.0320
    125 H          -1.0500   15.3904    2.8546 H       4  LIG4        0.0284
    126 H          -0.8723   13.8742    3.3362 H       4  LIG4        0.0284
    127 C          -0.3890   15.2384    4.7959 C.3     4  LIG4       -0.0513
    128 H           0.1627   14.6064    5.3201 H       4  LIG4        0.0266
    129 H          -1.2986   15.2533    5.1886 H       4  LIG4        0.0266
    130 C           0.2187   16.6249    4.8700 C.3     4  LIG4       -0.0524
    131 H           0.2450   16.9271    5.8128 H       4  LIG4        0.0265
    132 H          -0.3363   17.2626    4.3550 H       4  LIG4        0.0265
    133 C           1.6317   16.5916    4.2994 C.3     4  LIG4       -0.0444
    134 H           1.9901   17.5147    4.2828 H       4  LIG4        0.0272
    135 H           2.2067   16.0577    4.9033 H       4  LIG4        0.0272
    136 C           1.7231   16.0133    2.9027 C.3     4  LIG4        0.0062
    137 H           2.6839   15.8094    2.7175 H       4  LIG4        0.0368
    138 C           1.1869   16.8548    1.7376 C.ar    4  LIG4       -0.0199
    139 C           2.9493   13.4757    0.1556 C.ar    4  LIG4        0.1088
    140 C           3.7585   12.9937    1.1411 C.ar    4  LIG4       -0.0340
    141 H           3.3891   12.6267    1.9358 H       4  LIG4        0.0637
    142 C           5.1307   13.0493    0.9577 C.ar    4  LIG4       -0.0459
    143 H           5.7144   12.7305    1.6357 H       4  LIG4        0.0629
    144 C           5.6402   13.5628   -0.1889 C.ar    4  LIG4        0.0180
    145 C           4.8321   14.1040   -1.1744 C.ar    4  LIG4       -0.0459
    146 H           5.2046   14.5044   -1.9506 H       4  LIG4        0.0629
    147 C           3.4748   14.0447   -0.9873 C.ar    4  LIG4       -0.0340
    148 H           2.8917   14.3988   -1.6486 H       4  LIG4        0.0637
    149 N           7.7753    5.6349    7.9542 N.pl3   1  LIG1       -0.1991
    150 N           3.1397    0.6339   12.7149 N.pl3   2  LIG2       -0.1991
    151 N          -0.6570   10.0725   14.8655 N.pl3   3  LIG3       -0.1991
    152 N           0.6925   14.6731    1.2189 N.pl3   4  LIG4       -0.1991
    153 O           7.5537    3.2104    8.3247 O.2     1  LIG1       -0.1498
    154 O           7.8491    4.7693   10.2642 O.2     1  LIG1       -0.1498
    155 O           2.8372    2.2002   14.6118 O.2     2  LIG2       -0.1498
    156 O           3.2077    3.0844   12.3574 O.2     2  LIG2       -0.1498
    157 O          -0.6165   11.1920   12.6797 O.2     3  LIG3       -0.1498
    158 O          -0.8170   12.5025   14.7525 O.2     3  LIG3       -0.1498
    159 O           0.6047   13.5350   -0.9633 O.2     4  LIG4       -0.1498
    160 O           0.8885   12.2226    1.0985 O.2     4  LIG4       -0.1498
    161 S           7.2708    4.4638    8.9714 S.O2    1  LIG1        0.0750
    162 S           3.4947    2.1214   13.3551 S.O2    2  LIG2        0.0750
    163 S          -1.1542   11.3565   13.9944 S.O2    3  LIG3        0.0750
    164 S           1.1774   13.3850    0.3360 S.O2    4  LIG4        0.0750
@<TRIPOS>BOND
     1   146   145    1
     2   148   147    1
     3   118   117    1
     4   145   147   ar
     5   145   144   ar
     6   120   119    1
     7   147   139   ar
     8   159   164    2
     9   117   119   ar
    10   117   115   ar
    11     4   144    1
    12   119   121   ar
    13   144   142   ar
    14   139   164    1
    15   139   140   ar
    16   116   115    1
    17   164   160    2
    18   164   152    1
    19   115   113   ar
    20   121   152    1
    21   121   138   ar
    22   142   140   ar
    23   142   143    1
    24   140   141    1
    25   152   122    1
    26   113   138   ar
    27   113   114    1
    28   138   136    1
    29   122   136    1
    30   122   123    1
    31   122   124    1
    32   137   136    1
    33   125   124    1
    34   136   133    1
    35     9     8    1
    36   126   124    1
    37   124   127    1
    38    12    11    1
    39    13    11    1
    40     8    11    1
    41     8    10    1
    42     8     5    1
    43    11    14    1
    44     6     5    1
    45   134   133    1
    46   133   130    1
    47   133   135    1
    48   132   130    1
    49     7     5    1
    50     5    29    1
    51   127   130    1
    52   127   129    1
    53   127   128    1
    54   130   131    1
    55    14    16    1
    56    14    15    1
    57    14    17    1
    58    29    17    1
    59    29    30    1
    60    29    28    1
    61    18    17    1
    62    17   149    1
    63    27    26    1
    64    28    26   ar
    65    28    19   ar
    66    26    24   ar
    67    33    32    1
    68    35    34    1
    69   149    19    1
    70   149   161    1
    71    32    34   ar
    72    32    31   ar
    73    19    20   ar
    74   153   161    2
    75    34    36   ar
    76    24    25    1
    77    24    22   ar
    78    46    44    1
    79    48    47    1
    80    45    44    1
    81   161    31    1
    82   161   154    2
    83    31    39   ar
    84    44    47    1
    85    44    41    1
    86    20    22   ar
    87    20    21    1
    88    36     1    1
    89    36    37   ar
    90    22    23    1
    91    51    50    1
    92    47    50    1
    93    47    49    1
    94    39    37   ar
    95    39    40    1
    96    50    52    1
    97    50    53    1
    98    37    38    1
    99    42    41    1
   100    41    43    1
   101    41    65    1
   102    66    65    1
   103    65    53    1
   104    65    64    1
   105    53    54    1
   106    53   150    1
   107   107   106    1
   108    76    75    1
   109   105   104    1
   110    95    94    1
   111    74    73    1
   112   156   162    2
   113    93    92    1
   114   106   104   ar
   115   106   108   ar
   116    75    73   ar
   117    75    67   ar
   118   157   163    2
   119   104   103   ar
   120    63    62    1
   121    64    62   ar
   122    64    55   ar
   123   150   162    1
   124   150    55    1
   125    73    72   ar
   126    94    92   ar
   127    94    96   ar
   128    92    91   ar
   129    62    60   ar
   130   162    67    1
   131   162   155    2
   132     3   108    1
   133    55    56   ar
   134   108   109   ar
   135    67    68   ar
   136   103   163    1
   137   103   111   ar
   138    97    96    1
   139   163   158    2
   140   163   151    1
   141    96    98   ar
   142    72     2    1
   143    72    70   ar
   144    91   151    1
   145    91   100   ar
   146    60    61    1
   147    60    58   ar
   148   109   111   ar
   149   109   110    1
   150    68    70   ar
   151    68    69    1
   152   151    89    1
   153    56    58   ar
   154    56    57    1
   155   111   112    1
   156    70    71    1
   157    98   100   ar
   158    98    99    1
   159    58    59    1
   160   100   101    1
   161    89   101    1
   162    89    90    1
   163    89    86    1
   164    87    86    1
   165   102   101    1
   166   101    77    1
   167    88    86    1
   168    86    83    1
   169    81    80    1
   170    77    79    1
   171    77    80    1
   172    77    78    1
   173    83    80    1
   174    83    85    1
   175    83    84    1
   176    80    82    1
