@<TRIPOS>MOLECULE
C16 H13 N O4
 34 35 0 0 0
SMALL
GASTEIGER

@<TRIPOS>ATOM
      1 OXT         0.5729    2.9323    6.1808 O.3     1  TYR1       -0.4733
      2 HXT         0.6269    2.4534    6.9426 H       1  TYR1        0.2956
      3 O           2.7787    2.5391    6.0817 O.2     1  TYR1       -0.2388
      4 O           3.0366    2.3781    2.2542 O.2     0  UNK0       -0.2141
      5 OH         -0.5742    6.6732   -1.1391 O.3     1  TYR1       -0.5068
      6 HH         -1.3645    6.3871   -1.4017 H       1  TYR1        0.2921
      7 N           3.0707    4.0234    3.8139 N.am    1  TYR1       -0.1416
      8 H           3.5376    4.6489    4.2020 H       1  TYR1        0.4474
      9 C           1.7529    3.0152    5.6021 C.2     1  TYR1        0.3973
     10 CA          1.7660    3.7543    4.3209 C.2     1  TYR1        0.2714
     11 CB          0.6322    4.0718    3.6857 C.3     1  TYR1        0.0922
     12 HB         -0.1609    3.7424    4.1364 H       1  TYR1        0.0470
     13 C           3.6478    3.2735    2.8603 C.2     0  UNK0        0.4140
     14 C           5.0800    3.5551    2.5583 C.ar    0  UNK0        0.0891
     15 C           5.5614    3.2559    1.2888 C.ar    0  UNK0       -0.0448
     16 H           4.9200    2.9274    0.6374 H       0  UNK0        0.0627
     17 C           6.8958    3.4480    0.9823 C.ar    0  UNK0       -0.0609
     18 H           7.2403    3.2185    0.0817 H       0  UNK0        0.0618
     19 C           7.7614    3.9404    1.9419 C.ar    0  UNK0       -0.0617
     20 H           8.7263    4.0834    1.7371 H       0  UNK0        0.0618
     21 C           7.2873    4.2564    3.2044 C.ar    0  UNK0       -0.0609
     22 H           7.8772    4.6073    3.9089 H       0  UNK0        0.0618
     23 C           5.9542    4.0634    3.5159 C.ar    0  UNK0       -0.0448
     24 H           5.6323    4.2331    4.4077 H       0  UNK0        0.0627
     25 CG          0.3837    4.7795    2.4381 C.ar    1  TYR1       -0.0327
     26 CD2        -0.8927    4.6581    1.8795 C.ar    1  TYR1       -0.0543
     27 HD2        -1.5424    4.0585    2.3293 H       1  TYR1        0.0622
     28 CE2        -1.2379    5.2785    0.6957 C.ar    1  TYR1       -0.0199
     29 HE2        -2.0972    5.1479    0.2888 H       1  TYR1        0.0654
     30 CZ         -0.3076    6.0589    0.0464 C.ar    1  TYR1        0.1169
     31 CE1         0.9618    6.2241    0.5977 C.ar    1  TYR1       -0.0199
     32 HE1         1.5544    6.7863    0.1429 H       1  TYR1        0.0654
     33 CD1         1.3065    5.5800    1.7659 C.ar    1  TYR1       -0.0543
     34 HD1         2.1908    5.6885    2.0974 H       1  TYR1        0.0622
@<TRIPOS>BOND
     1     6     5    1
     2     5    30    1
     3    30    31   ar
     4    30    28   ar
     5    18    17    1
     6    32    31    1
     7    29    28    1
     8    31    33   ar
     9    16    15    1
    10    28    26   ar
    11    17    15   ar
    12    17    19   ar
    13    15    14   ar
    14    20    19    1
    15    33    34    1
    16    33    25   ar
    17    26    27    1
    18    26    25   ar
    19    19    21   ar
    20     4    13    2
    21    25    11    1
    22    14    13    1
    23    14    23   ar
    24    13     7   am
    25    21    23   ar
    26    21    22    1
    27    23    24    1
    28    11    12    1
    29    11    10    1
    30     7     8    1
    31     7    10    2
    32    10     9    1
    33     9     3    2
    34     9     1    1
    35     1     2    1
