@<TRIPOS>MOLECULE
?
 33 35 0 0 0
SMALL
GASTEIGER

@<TRIPOS>ATOM
      1 BR          0.7151    4.9316   17.6887 Br      1  LIG1       -0.0503
      2 C           6.0208    2.8309   14.4218 C.3     1  LIG1        0.0326
      3 H           5.1874    2.3840   14.7456 H       1  LIG1        0.0505
      4 C           7.0293    1.7875   13.9362 C.3     1  LIG1       -0.0071
      5 H           7.7397    1.6398   14.6109 H       1  LIG1        0.0332
      6 H           6.5827    0.9248   13.7437 H       1  LIG1        0.0332
      7 C           7.5903    2.3953   12.6872 C.ar    1  LIG1       -0.0242
      8 C           8.7004    2.0321   11.9460 C.ar    1  LIG1       -0.0567
      9 H           9.2605    1.3199   12.2323 H       1  LIG1        0.0621
     10 C           8.9822    2.7170   10.7925 C.ar    1  LIG1       -0.0614
     11 H           9.7490    2.4790   10.2830 H       1  LIG1        0.0618
     12 C           8.1718    3.7453   10.3546 C.ar    1  LIG1       -0.0600
     13 H           8.3793    4.1931    9.5435 H       1  LIG1        0.0618
     14 C           7.0498    4.1358   11.0907 C.ar    1  LIG1       -0.0400
     15 H           6.4871    4.8432   10.7976 H       1  LIG1        0.0636
     16 C           6.7953    3.4499   12.2596 C.ar    1  LIG1        0.0401
     17 C           6.6024    3.7143   15.5106 C.3     1  LIG1       -0.0457
     18 H           7.4042    4.1649   15.1715 H       1  LIG1        0.0248
     19 H           6.8389    3.1648   16.2859 H       1  LIG1        0.0248
     20 H           5.9389    4.3851   15.7764 H       1  LIG1        0.0248
     21 C           4.7280    4.5328   13.0621 C.2     1  LIG1        0.2511
     22 C           3.7145    4.5977   14.1679 C.ar    1  LIG1        0.0373
     23 C           2.9007    3.5054   14.4934 C.ar    1  LIG1       -0.0486
     24 H           2.9852    2.6813   14.0282 H       1  LIG1        0.0625
     25 C           1.9691    3.6531   15.5106 C.ar    1  LIG1       -0.0470
     26 H           1.3833    2.9353   15.7219 H       1  LIG1        0.0629
     27 C           1.8880    4.8103   16.2007 C.ar    1  LIG1        0.0179
     28 C           2.6539    5.9101   15.8735 C.ar    1  LIG1       -0.0470
     29 H           2.5540    6.7286   16.3438 H       1  LIG1        0.0629
     30 C           3.5770    5.7934   14.8376 C.ar    1  LIG1       -0.0486
     31 H           4.1115    6.5386   14.5922 H       1  LIG1        0.0625
     32 N           5.7365    3.6277   13.1962 N.am    1  LIG1       -0.2641
     33 O           4.6358    5.2835   12.0991 O.2     1  LIG1       -0.2696
@<TRIPOS>BOND
     1    13    12    1
     2    11    10    1
     3    12    10   ar
     4    12    14   ar
     5    10     8   ar
     6    15    14    1
     7    14    16   ar
     8     8     9    1
     9     8     7   ar
    10    33    21    2
    11    16     7   ar
    12    16    32    1
    13     7     4    1
    14    21    32   am
    15    21    22    1
    16    32     2    1
    17     6     4    1
    18     4     2    1
    19     4     5    1
    20    24    23    1
    21    22    23   ar
    22    22    30   ar
    23     2     3    1
    24     2    17    1
    25    23    25   ar
    26    31    30    1
    27    30    28   ar
    28    18    17    1
    29    25    26    1
    30    25    27   ar
    31    17    20    1
    32    17    19    1
    33    28    27   ar
    34    28    29    1
    35    27     1    1
