@<TRIPOS>MOLECULE
?
 86 88 0 0 0
SMALL
GASTEIGER

@<TRIPOS>ATOM
      1 BR          7.1444    0.9245    5.7083 Br      1  LIG1       -0.0503
      2 BR          3.5466    8.4027   14.7825 Br      2  LIG2       -0.0503
      3 O           3.0793    3.0351   11.2570 O.3     1  LIG1       -0.3865
      4 H           2.8395    2.9626   10.4540 H       1  LIG1        0.2103
      5 O           9.2606    6.0874   11.4123 O.3     2  LIG2       -0.3865
      6 H          10.0820    6.0834   11.5921 H       2  LIG2        0.2103
      7 O          11.7357    7.0046   11.8119 O.3     2  LIG2       -0.3943
      8 H          12.5476    6.8926   11.6313 H       2  LIG2        0.2094
      9 O           2.0014    5.4297   11.3801 O.3     1  LIG1       -0.3943
     10 H           2.0762    4.6245   11.6051 H       1  LIG1        0.2094
     11 C           4.8576    3.7494   12.7591 C.ar    1  LIG1       -0.0185
     12 C           3.2966    6.0333   11.3288 C.3     1  LIG1        0.0531
     13 H           3.6147    6.2139   12.2493 H       1  LIG1        0.0564
     14 H           3.2420    6.8966   10.8479 H       1  LIG1        0.0564
     15 C           3.5791    6.1954    8.3823 C.2     1  LIG1       -0.0830
     16 H           4.3187    6.7819    8.2779 H       1  LIG1        0.0573
     17 C          11.2620    8.2105   11.1786 C.3     2  LIG2        0.0531
     18 H          11.4365    8.1552   10.2037 H       2  LIG2        0.0564
     19 H          11.7677    8.9828   11.5333 H       2  LIG2        0.0564
     20 C           7.2615    9.6220   13.3482 C.ar    2  LIG2       -0.0569
     21 H           7.6580   10.4364   13.0631 H       2  LIG2        0.0621
     22 C           9.4992    8.4306   12.9611 C.3     2  LIG2        0.0121
     23 H           9.8553    7.5595   13.2981 H       2  LIG2        0.0398
     24 C           9.7591    8.4398   11.4093 C.3     2  LIG2        0.0313
     25 C           4.2831    5.1121   10.6172 C.3     1  LIG1        0.0313
     26 C           5.8085    3.7389   15.3829 C.ar    1  LIG1       -0.0617
     27 H           6.1290    3.7244   16.2751 H       1  LIG1        0.0618
     28 C           4.4694    4.0183   15.1304 C.ar    1  LIG1       -0.0614
     29 H           3.8794    4.2041   15.8507 H       1  LIG1        0.0618
     30 C           4.3543    3.7112   11.3201 C.3     1  LIG1        0.0884
     31 H           5.0036    3.1577   10.8000 H       1  LIG1        0.0650
     32 C           6.1575    2.1640    6.7677 C.ar    1  LIG1        0.0179
     33 C           6.1955    3.4832   13.0370 C.ar    1  LIG1       -0.0561
     34 H           6.7950    3.3000   12.3233 H       1  LIG1        0.0621
     35 C           3.7928    4.8907    9.1266 C.3     1  LIG1        0.0121
     36 H           2.8953    4.4545    9.1897 H       1  LIG1        0.0398
     37 C           5.9141    9.6233   13.7617 C.ar    2  LIG2       -0.0475
     38 H           5.4025   10.4233   13.7508 H       2  LIG2        0.0629
     39 C           5.8500    4.3583    7.6642 C.ar    1  LIG1       -0.0569
     40 H           6.1444    5.2571    7.7556 H       1  LIG1        0.0621
     41 C           4.6689    3.9471    8.3112 C.ar    1  LIG1       -0.0398
     42 C           3.9958    4.0262   13.8313 C.ar    1  LIG1       -0.0561
     43 H           3.0805    4.2186   13.6637 H       1  LIG1        0.0621
     44 C           9.4054    9.7907   10.7760 C.3     2  LIG2       -0.0539
     45 H           9.9443   10.4971   11.1917 H       2  LIG2        0.0237
     46 H           8.4545    9.9791   10.9218 H       2  LIG2        0.0237
     47 H           9.5906    9.7590    9.8142 H       2  LIG2        0.0237
     48 C           9.0837    7.1826    9.2332 C.ar    2  LIG2       -0.0185
     49 C           5.3514    8.4253   14.1816 C.ar    2  LIG2        0.0179
     50 C           5.6684    5.7645   10.6585 C.3     1  LIG1       -0.0539
     51 H           5.6447    6.6093   10.1602 H       1  LIG1        0.0237
     52 H           6.3249    5.1635   10.2494 H       1  LIG1        0.0237
     53 H           5.9201    5.9398   11.5877 H       1  LIG1        0.0237
     54 C           6.6656    3.4845   14.3449 C.ar    1  LIG1       -0.0614
     55 H           7.5820    3.3066   14.5211 H       1  LIG1        0.0618
     56 C           8.9199    7.3170   10.7412 C.3     2  LIG2        0.0884
     57 H           7.9559    7.5068   10.9262 H       2  LIG2        0.0650
     58 C           4.2676    2.6213    8.1538 C.ar    1  LIG1       -0.0569
     59 H           3.4723    2.3235    8.5782 H       1  LIG1        0.0621
     60 C           5.0072    1.7238    7.3922 C.ar    1  LIG1       -0.0475
     61 H           4.7247    0.8211    7.3008 H       1  LIG1        0.0629
     62 C           8.0224    8.4636   13.3499 C.ar    2  LIG2       -0.0398
     63 C          10.2696    9.5060   13.6833 C.2     2  LIG2       -0.0830
     64 H           9.9325   10.3930   13.6681 H       2  LIG2        0.0573
     65 C           6.5884    3.4753    6.8939 C.ar    1  LIG1       -0.0475
     66 H           7.3826    3.7652    6.4608 H       1  LIG1        0.0629
     67 C          10.1248    6.4129    8.6739 C.ar    2  LIG2       -0.0561
     68 H          10.7444    5.9714    9.2441 H       2  LIG2        0.0621
     69 C          10.2506    6.2982    7.3008 C.ar    2  LIG2       -0.0614
     70 H          10.9546    5.7803    6.9287 H       2  LIG2        0.0618
     71 C           7.4028    7.2788   13.7921 C.ar    2  LIG2       -0.0569
     72 H           7.9073    6.4748   13.8095 H       2  LIG2        0.0621
     73 C          11.4009    9.2688   14.3405 C.2     2  LIG2       -0.1020
     74 H          11.7582    8.3898   14.3688 H       2  LIG2        0.0532
     75 H          11.8520    9.9805   14.7801 H       2  LIG2        0.0532
     76 C           2.4169    6.5552    7.8731 C.2     1  LIG1       -0.1020
     77 H           1.6619    5.9859    7.9645 H       1  LIG1        0.0532
     78 H           2.3350    7.3842    7.4161 H       1  LIG1        0.0532
     79 C           9.3389    6.9453    6.4630 C.ar    2  LIG2       -0.0617
     80 H           9.4220    6.8649    5.5208 H       2  LIG2        0.0618
     81 C           8.1862    7.8112    8.3823 C.ar    2  LIG2       -0.0561
     82 H           7.4740    8.3225    8.7457 H       2  LIG2        0.0621
     83 C           6.0803    7.2524   14.2012 C.ar    2  LIG2       -0.0475
     84 H           5.6815    6.4406   14.4928 H       2  LIG2        0.0629
     85 C           8.3192    7.7018    7.0005 C.ar    2  LIG2       -0.0614
     86 H           7.7067    8.1486    6.4282 H       2  LIG2        0.0618
@<TRIPOS>BOND
     1    80    79    1
     2     1    32    1
     3    86    85    1
     4    66    65    1
     5    79    85   ar
     6    79    69   ar
     7    32    65   ar
     8    32    60   ar
     9    65    39   ar
    10    70    69    1
    11    85    81   ar
    12    61    60    1
    13    69    67   ar
    14    60    58   ar
    15    78    76    1
    16    39    40    1
    17    39    41   ar
    18    76    77    1
    19    76    15    2
    20    58    41   ar
    21    58    59    1
    22    16    15    1
    23    41    35    1
    24    15    35    1
    25    81    82    1
    26    81    48   ar
    27    67    48   ar
    28    67    68    1
    29    35    36    1
    30    35    25    1
    31    48    56    1
    32    47    44    1
    33    51    50    1
    34    18    17    1
    35    52    50    1
    36     4     3    1
    37    25    50    1
    38    25    30    1
    39    25    12    1
    40    50    53    1
    41    56    57    1
    42    56    24    1
    43    56     5    1
    44    44    46    1
    45    44    45    1
    46    44    24    1
    47    31    30    1
    48    14    12    1
    49    17    24    1
    50    17    19    1
    51    17     7    1
    52     3    30    1
    53    30    11    1
    54    12     9    1
    55    12    13    1
    56     9    10    1
    57    24    22    1
    58     5     6    1
    59     8     7    1
    60    34    33    1
    61    11    33   ar
    62    11    42   ar
    63    22    23    1
    64    22    62    1
    65    22    63    1
    66    33    54   ar
    67    21    20    1
    68    20    62   ar
    69    20    37   ar
    70    62    71   ar
    71    43    42    1
    72    64    63    1
    73    63    73    2
    74    38    37    1
    75    37    49   ar
    76    71    72    1
    77    71    83   ar
    78    42    28   ar
    79    49    83   ar
    80    49     2    1
    81    83    84    1
    82    73    74    1
    83    73    75    1
    84    54    55    1
    85    54    26   ar
    86    28    26   ar
    87    28    29    1
    88    26    27    1
