@<TRIPOS>MOLECULE
ClBBO
 42 48 0 0 0
SMALL
GASTEIGER

@<TRIPOS>ATOM
      1 CL         30.1162    3.8006    7.3617 Cl      1  LIG1       -0.1041
      2 S          26.8465    2.6041   11.1385 S.3     1  LIG1        0.0499
      3 S          27.5748    3.3675    9.3204 S.3     1  LIG1       -0.0330
      4 S          34.1624    2.0249    9.8885 S.3     1  LIG1        0.0499
      5 S          32.9897    2.8384    8.3574 S.3     1  LIG1       -0.0330
      6 O          30.7064    1.0169   12.4722 O.2     1  LIG1       -0.2833
      7 N          28.2284    2.0528   11.7222 N.2     1  LIG1       -0.1991
      8 N          33.0039    1.6438   10.8942 N.2     1  LIG1       -0.1991
      9 C          30.6283    1.6782   11.4822 C.2     1  LIG1        0.2323
     10 C          31.7746    1.9649   10.5192 C.2     1  LIG1        0.1339
     11 C          31.5844    2.6492    9.3076 C.2     1  LIG1        0.0558
     12 C          30.2966    3.1041    8.9582 C.3     1  LIG1        0.1403
     13 C          29.1406    2.8939    9.7323 C.2     1  LIG1        0.0558
     14 C          29.2869    2.2287   11.0220 C.2     1  LIG1        0.1339
     15 CL         32.3063    4.5973    4.5167 Cl      2  LIG2       -0.1041
     16 S          36.9628    2.8285    5.7098 S.3     2  LIG2        0.0499
     17 S          35.0838    3.7593    5.8789 S.3     2  LIG2       -0.0330
     18 S          32.8161    3.3526   -0.4446 S.3     2  LIG2        0.0499
     19 S          31.9673    4.1225    1.3167 S.3     2  LIG2       -0.0330
     20 O          36.4623    1.7700    1.4559 O.2     2  LIG2       -0.2833
     21 N          36.8867    2.4122    4.1659 N.2     2  LIG2       -0.1991
     22 N          34.1648    2.7868    0.1449 N.2     2  LIG2       -0.1991
     23 C          35.6087    2.3854    2.0780 C.2     2  LIG2        0.2323
     24 C          34.3794    2.8900    1.4516 C.2     2  LIG2        0.1339
     25 C          33.3502    3.5896    2.2768 C.2     2  LIG2        0.0558
     26 C          33.5209    3.7502    3.5964 C.3     2  LIG2        0.1403
     27 C          34.7160    3.4214    4.2242 C.2     2  LIG2        0.0558
     28 C          35.7696    2.7180    3.5552 C.2     2  LIG2        0.1339
     29 CL         29.2108    2.5165    3.7654 Cl      3  LIG3       -0.1041
     30 S          26.7109    0.7542   -0.3409 S.3     3  LIG3        0.0499
     31 S          28.2406    1.5998    0.8266 S.3     3  LIG3       -0.0330
     32 S          25.4163    1.1434    6.9910 S.3     3  LIG3        0.0499
     33 S          27.2392    1.9768    6.2680 S.3     3  LIG3       -0.0330
     34 O          24.1017   -0.2791    3.0168 O.2     3  LIG3       -0.2833
     35 N          25.6773    0.3746    0.7840 N.2     3  LIG3       -0.1991
     36 N          24.8285    0.6040    5.5763 N.2     3  LIG3       -0.1991
     37 C          25.1505    0.3173    3.2029 C.2     3  LIG3        0.2323
     38 C          25.5992    0.8716    4.5025 C.2     3  LIG3        0.1339
     39 C          26.8187    1.5062    4.6574 C.2     3  LIG3        0.0558
     40 C          27.7065    1.7852    3.5523 C.3     3  LIG3        0.1403
     41 C          27.2675    1.3533    2.2669 C.2     3  LIG3        0.0558
     42 C          26.0431    0.6843    2.0311 C.2     3  LIG3        0.1339
@<TRIPOS>BOND
     1    18    22    1
     2    18    19    1
     3    30    35    1
     4    30    31    1
     5    22    24    2
     6    35    42    2
     7    31    41    2
     8    19    25    2
     9    24    23    1
    10    24    25    1
    11    20    23    2
    12    42    41    1
    13    42    37    1
    14    23    28    1
    15    41    40    1
    16    25    26    1
    17    34    37    2
    18    37    38    1
    19    40    29    1
    20    40    39    1
    21    28    21    2
    22    28    27    1
    23    26    27    1
    24    26    15    1
    25    21    16    1
    26    27    17    2
    27    38    39    1
    28    38    36    2
    29    39    33    2
    30    36    32    1
    31    16    17    1
    32    33    32    1
    33     1    12    1
    34     5    11    2
    35     5     4    1
    36    12    11    1
    37    12    13    1
    38    11    10    1
    39     3    13    2
    40     3     2    1
    41    13    14    1
    42     4     8    1
    43    10     8    2
    44    10     9    1
    45    14     9    1
    46    14     7    2
    47     2     7    1
    48     9     6    2
