@<TRIPOS>MOLECULE
?
 37 40 0 0 0
SMALL
GASTEIGER

@<TRIPOS>ATOM
      1 O           8.9615    7.0064    7.3853 O.2     1  LIG1       -0.2742
      2 O           8.6949    4.7438    4.3436 O.3     1  LIG1       -0.4898
      3 O          11.7487    5.4103    4.1151 O.2     1  LIG1       -0.2745
      4 N          10.4280    5.9492    5.9442 N.am    1  LIG1       -0.2059
      5 C          11.5300    4.5966    8.3552 C.3     1  LIG1       -0.0378
      6 H          12.1934    5.0511    7.8316 H       1  LIG1        0.0278
      7 H          11.9518    3.9214    8.8907 H       1  LIG1        0.0278
      8 H          11.0852    5.2275    8.9264 H       1  LIG1        0.0278
      9 C          10.5238    3.9528    7.4401 C.ar    1  LIG1       -0.0251
     10 C          10.0405    4.6139    6.3167 C.ar    1  LIG1        0.0883
     11 C          10.9936    6.1829    4.6613 C.2     1  LIG1        0.2307
     12 C          10.4801    7.5128    4.1342 C.3     1  LIG1        0.0535
     13 H          11.1602    8.1967    3.9628 H       1  LIG1        0.0407
     14 C           9.3885    7.3559    3.0441 C.3     1  LIG1       -0.0249
     15 H           9.2750    8.2313    2.6181 H       1  LIG1        0.0310
     16 C           9.4812    6.3344    1.9457 C.3     1  LIG1       -0.0613
     17 H          10.1343    6.6158    1.3019 H       1  LIG1        0.0233
     18 H           8.6261    6.2468    1.5185 H       1  LIG1        0.0233
     19 H           9.7416    5.4883    2.3170 H       1  LIG1        0.0233
     20 C           8.3168    7.2477    4.1675 C.3     1  LIG1        0.0109
     21 H           7.5856    7.8786    3.9997 H       1  LIG1        0.0346
     22 C           9.3833    7.8948    5.1528 C.3     1  LIG1        0.0625
     23 C           9.1344    9.3458    5.5039 C.3     1  LIG1       -0.0501
     24 H           8.3751    9.4075    6.0882 H       1  LIG1        0.0240
     25 H           8.9625    9.8436    4.7018 H       1  LIG1        0.0240
     26 H           9.9083    9.7051    5.9442 H       1  LIG1        0.0240
     27 C           9.5458    6.9707    6.3262 C.2     1  LIG1        0.2333
     28 C           9.0709    4.0599    5.4944 C.ar    1  LIG1        0.1425
     29 C           7.7523    5.8508    4.4519 C.3     1  LIG1        0.0937
     30 H           7.3846    5.8497    5.3492 H       1  LIG1        0.0700
     31 H           7.0200    5.6884    3.8378 H       1  LIG1        0.0700
     32 C           8.5542    2.8123    5.7931 C.ar    1  LIG1       -0.0181
     33 H           7.8970    2.4325    5.2552 H       1  LIG1        0.0655
     34 C           9.0229    2.1403    6.8962 C.ar    1  LIG1       -0.0579
     35 H           8.6792    1.3006    7.1021 H       1  LIG1        0.0619
     36 C          10.0020    2.6976    7.7078 C.ar    1  LIG1       -0.0568
     37 H          10.3134    2.2204    8.4433 H       1  LIG1        0.0621
@<TRIPOS>BOND
     1    17    16    1
     2    18    16    1
     3    16    19    1
     4    16    14    1
     5    15    14    1
     6    14    12    1
     7    14    20    1
     8    31    29    1
     9    13    12    1
    10    21    20    1
    11     3    11    2
    12    12    11    1
    13    12    22    1
    14    20    29    1
    15    20    22    1
    16     2    29    1
    17     2    28    1
    18    29    30    1
    19    11     4   am
    20    25    23    1
    21    22    23    1
    22    22    27    1
    23    33    32    1
    24    28    32   ar
    25    28    10   ar
    26    23    26    1
    27    23    24    1
    28    32    34   ar
    29     4    10    1
    30     4    27   am
    31    10     9   ar
    32    27     1    2
    33    34    35    1
    34    34    36   ar
    35     9    36   ar
    36     9     5    1
    37    36    37    1
    38     6     5    1
    39     5     7    1
    40     5     8    1
