@<TRIPOS>MOLECULE
?
 71 77 0 0 0
SMALL
GASTEIGER

@<TRIPOS>ATOM
      1 C           0.8955   11.6633   13.8011 C.3     1  LIG1        0.0477
      2 H           0.8339   12.6388   13.5912 H       1  LIG1        0.0520
      3 C           0.0842    9.5445   13.1115 C.3     1  LIG1        0.1395
      4 H           1.0045    9.2028   13.3034 H       1  LIG1        0.0823
      5 C           2.8023   11.2988   15.2281 C.ar    1  LIG1       -0.0414
      6 C           0.0493    9.9359   15.4170 C.3     1  LIG1        0.1634
      7 H           0.9166    9.4399   15.4465 H       1  LIG1        0.0693
      8 C           2.3631   11.2909   13.8839 C.ar    1  LIG1       -0.0257
      9 C           4.5653   10.6348   13.1631 C.ar    1  LIG1       -0.0176
     10 C           7.2020    9.8824   13.7905 C.ar    1  LIG1       -0.0612
     11 H           8.0932    9.6248   13.9961 H       1  LIG1        0.0618
     12 C           3.2182   10.9757   12.8683 C.ar    1  LIG1       -0.0491
     13 H           2.9139   10.9849   11.9685 H       1  LIG1        0.0627
     14 C           4.0765   10.9464   15.5489 C.ar    1  LIG1       -0.0505
     15 H           4.3544   10.9387   16.4572 H       1  LIG1        0.0626
     16 C           1.6658   11.7270   16.1221 C.3     1  LIG1       -0.0170
     17 H           1.7362   12.6895   16.3449 H       1  LIG1        0.0320
     18 H           1.6629   11.2041   16.9618 H       1  LIG1        0.0320
     19 C           6.3141   10.1784   14.8026 C.ar    1  LIG1       -0.0540
     20 H           6.5961   10.1050   15.7075 H       1  LIG1        0.0624
     21 C           6.7806    9.9628   12.4482 C.ar    1  LIG1       -0.0612
     22 H           7.3948    9.7725   11.7502 H       1  LIG1        0.0618
     23 C           4.9938   10.5885   14.5192 C.ar    1  LIG1       -0.0176
     24 C           5.5022   10.3103   12.1447 C.ar    1  LIG1       -0.0540
     25 H           5.2299   10.3362   11.2346 H       1  LIG1        0.0624
     26 C           0.3915   11.4460   15.2945 C.3     1  LIG1        0.0332
     27 C          -0.5189    8.6543   12.0564 C.ar    1  LIG1       -0.0041
     28 C          -0.0303    8.7335   10.7515 C.ar    1  LIG1       -0.0548
     29 H           0.6167    9.3922   10.5307 H       1  LIG1        0.0622
     30 C          -1.4712    7.6900   12.3506 C.ar    1  LIG1       -0.0548
     31 H          -1.8090    7.6205   13.2354 H       1  LIG1        0.0622
     32 C          -1.4362    6.9131   10.0841 C.ar    1  LIG1       -0.0617
     33 H          -1.7542    6.3186    9.4141 H       1  LIG1        0.0618
     34 C          -0.4816    7.8566    9.7720 C.ar    1  LIG1       -0.0614
     35 H          -0.1329    7.9069    8.8905 H       1  LIG1        0.0618
     36 C          -1.9345    6.8315   11.3796 C.ar    1  LIG1       -0.0614
     37 H          -2.5951    6.1829   11.5952 H       1  LIG1        0.0618
     38 C          -0.8363   12.7077   11.3361 C.ar    1  LIG1       -0.0333
     39 C          -1.0349   11.5203   12.2502 C.3     1  LIG1        0.0272
     40 H          -1.5724   11.8066   13.0313 H       1  LIG1        0.0477
     41 H          -1.5537   10.8298   11.7660 H       1  LIG1        0.0477
     42 C          -1.9540   13.4654   10.9802 C.ar    1  LIG1       -0.0573
     43 H          -2.8025   13.2442   11.3453 H       1  LIG1        0.0621
     44 C           0.5023   14.1253    9.9153 C.ar    1  LIG1       -0.0615
     45 H           1.3471   14.3508    9.5453 H       1  LIG1        0.0618
     46 C          -0.6120   14.8608    9.5801 C.ar    1  LIG1       -0.0617
     47 H          -0.5347   15.5975    8.9854 H       1  LIG1        0.0618
     48 C          -1.8504   14.5233   10.1144 C.ar    1  LIG1       -0.0615
     49 H          -2.6231   15.0248    9.8807 H       1  LIG1        0.0618
     50 C           0.3964   13.0507   10.7961 C.ar    1  LIG1       -0.0573
     51 H           1.1699   12.5508   11.0274 H       1  LIG1        0.0621
     52 C          -0.7986   12.3512   15.7105 C.3     1  LIG1       -0.0173
     53 H          -1.5918   12.0825   15.1824 H       1  LIG1        0.0320
     54 H          -1.0038   12.1765   16.6628 H       1  LIG1        0.0320
     55 C          -0.5936   13.8390   15.5353 C.ar    1  LIG1       -0.0467
     56 C          -0.1131   14.6301   16.5788 C.ar    1  LIG1       -0.0586
     57 H           0.1197   14.2255   17.4062 H       1  LIG1        0.0620
     58 C          -0.9308   14.4671   14.3504 C.ar    1  LIG1       -0.0586
     59 H          -1.2812   13.9511   13.6339 H       1  LIG1        0.0620
     60 C          -0.2825   16.5941   15.2248 C.ar    1  LIG1       -0.0617
     61 H          -0.1637   17.5302   15.1112 H       1  LIG1        0.0618
     62 C           0.0293   16.0051   16.4212 C.ar    1  LIG1       -0.0615
     63 H           0.3428   16.5355   17.1437 H       1  LIG1        0.0618
     64 C          -0.7686   15.8301   14.1856 C.ar    1  LIG1       -0.0615
     65 H          -0.9912   16.2388   13.3572 H       1  LIG1        0.0618
     66 C          -0.7586    9.4923   16.6291 C.3     1  LIG1        0.4163
     67 F          -2.0512    9.8405   16.5792 F       1  LIG1       -0.1679
     68 F          -0.7291    8.1573   16.7378 F       1  LIG1       -0.1679
     69 F          -0.2687    9.9795   17.7798 F       1  LIG1       -0.1679
     70 N           0.2079   10.9212   12.7307 N.3     1  LIG1       -0.2619
     71 O          -0.6903    9.4144   14.3286 O.3     1  LIG1       -0.3447
@<TRIPOS>BOND
     1    35    34    1
     2    47    46    1
     3    33    32    1
     4    45    44    1
     5    46    44   ar
     6    46    48   ar
     7    34    32   ar
     8    34    28   ar
     9    49    48    1
    10    44    50   ar
    11    32    36   ar
    12    48    42   ar
    13    29    28    1
    14    28    27   ar
    15    50    51    1
    16    50    38   ar
    17    42    38   ar
    18    42    43    1
    19    25    24    1
    20    38    39    1
    21    36    37    1
    22    36    30   ar
    23    22    21    1
    24    41    39    1
    25    13    12    1
    26    27    30   ar
    27    27     3    1
    28    24    21   ar
    29    24     9   ar
    30    39    70    1
    31    39    40    1
    32    30    31    1
    33    21    10   ar
    34    70     3    1
    35    70     1    1
    36    12     9   ar
    37    12     8   ar
    38     3     4    1
    39     3    71    1
    40     9    23   ar
    41    65    64    1
    42     2     1    1
    43    59    58    1
    44    10    11    1
    45    10    19   ar
    46     1     8    1
    47     1    26    1
    48     8     5   ar
    49    64    58   ar
    50    64    60   ar
    51    71     6    1
    52    58    55   ar
    53    23    19   ar
    54    23    14   ar
    55    19    20    1
    56    61    60    1
    57    53    52    1
    58    60    62   ar
    59     5    14   ar
    60     5    16    1
    61    26     6    1
    62    26    52    1
    63    26    16    1
    64     6     7    1
    65     6    66    1
    66    55    52    1
    67    55    56   ar
    68    14    15    1
    69    52    54    1
    70    16    17    1
    71    16    18    1
    72    62    56   ar
    73    62    63    1
    74    56    57    1
    75    67    66    1
    76    66    68    1
    77    66    69    1
