@<TRIPOS>MOLECULE
4121881.cif
 33 32 0 0 0
SMALL
GASTEIGER

@<TRIPOS>ATOM
      1 C           0.8478    7.4700    8.6868 C.3     1  LIG1        0.0121
      2 H           1.5967    7.1254    9.1967 H       1  LIG1        0.0346
      3 H           0.9713    8.4228    8.5524 H       1  LIG1        0.0346
      4 C          -0.4475    7.1956    9.3921 C.2     1  LIG1        0.1803
      5 C          -1.0989    6.0555    8.7020 C.2     1  LIG1        0.1220
      6 C          -0.2154    5.5514    7.6047 C.3     1  LIG1       -0.0035
      7 H          -0.7298    5.3314    6.8128 H       1  LIG1        0.0330
      8 H           0.2832    4.7688    7.8876 H       1  LIG1        0.0330
      9 C           0.7242    6.7436    7.3434 C.3     1  LIG1       -0.0404
     10 H           1.5924    6.4347    7.0408 H       1  LIG1        0.0273
     11 H           0.3501    7.3322    6.6690 H       1  LIG1        0.0273
     12 C           3.2929    9.1727    6.7112 C.3     2  LIG2        0.0121
     13 H           2.5695    8.6317    6.3595 H       2  LIG2        0.0346
     14 H           2.9132    9.8766    7.2585 H       2  LIG2        0.0346
     15 C           4.0966    9.7641    5.5859 C.2     2  LIG2        0.1803
     16 C           5.4437    9.1220    5.6181 C.2     2  LIG2        0.1220
     17 C           5.5777    8.2151    6.7870 C.3     2  LIG2       -0.0035
     18 H           6.3109    8.4963    7.3553 H       2  LIG2        0.0330
     19 H           5.7395    7.3038    6.4958 H       2  LIG2        0.0330
     20 C           4.2402    8.3146    7.5381 C.3     2  LIG2       -0.0404
     21 H           3.8631    7.4298    7.6648 H       2  LIG2        0.0273
     22 H           4.3780    8.7167    8.4097 H       2  LIG2        0.0273
     23 N          -2.2871    5.7140    9.0261 N.2     1  LIG1       -0.0886
     24 N           6.2699    9.4163    4.6829 N.2     2  LIG2       -0.0886
     25 O          -0.9080    7.7955   10.3509 O.2     1  LIG1       -0.2907
     26 O          -2.7352    4.6565    8.2628 O.2     1  LIG1       -0.4089
     27 H          -3.5652    4.5714    8.3626 H       1  LIG1        0.3278
     28 O           3.7292   10.5842    4.7768 O.2     2  LIG2       -0.2907
     29 O           7.4786    8.7545    4.8244 O.2     2  LIG2       -0.4089
     30 H           8.0036    8.9970    4.2151 H       2  LIG2        0.3278
     31 O          -2.5987   10.0581   10.4379 O.3     3  HOH3       -0.4105
     32 H          -2.5484   10.4246    9.7099 H       0  HOH0        0.2052
     33 H          -2.0926    9.3423   10.4256 H       0  HOH0        0.2052
@<TRIPOS>BOND
     1    30    29    1
     2    24    29    1
     3    24    16    2
     4    28    15    2
     5    15    16    1
     6    15    12    1
     7    16    17    1
     8    13    12    1
     9    19    17    1
    10    11     9    1
    11    12    14    1
    12    12    20    1
    13    17    18    1
    14    17    20    1
    15     7     6    1
    16    10     9    1
    17     9     6    1
    18     9     1    1
    19    20    21    1
    20    20    22    1
    21     6     8    1
    22     6     5    1
    23    26    27    1
    24    26    23    1
    25     3     1    1
    26     1     2    1
    27     1     4    1
    28     5    23    2
    29     5     4    1
    30     4    25    2
    31    32    31    1
    32    33    31    1
