@<TRIPOS>MOLECULE
4121807.cif
 50 52 0 0 0
SMALL
GASTEIGER

@<TRIPOS>ATOM
      1 O          -3.8833    4.6600   10.1203 O.3     1  LIG1       -0.5053
      2 H          -3.4493    3.9892   10.3066 H       1  LIG1        0.2922
      3 O          -2.5040    3.0712   11.6186 O.2     1  LIG1       -0.2448
      4 O          -2.2264    3.6056   13.7673 O.3     1  LIG1       -0.4644
      5 O           1.9684    0.6294    4.3458 O.3     2  LIG2       -0.5053
      6 H           1.4771   -0.0140    4.4773 H       2  LIG2        0.2922
      7 O           0.5603   -1.0289    5.7583 O.2     2  LIG2       -0.2448
      8 O           0.5144   -0.7579    7.9779 O.3     2  LIG2       -0.4644
      9 C          -4.0504    5.4086   11.2287 C.ar    1  LIG1        0.1385
     10 C          -4.8468    6.5804   11.0884 C.ar    1  LIG1        0.0244
     11 C          -5.4270    6.9432    9.8547 C.ar    1  LIG1       -0.0505
     12 H          -5.2984    6.4034    9.1082 H       1  LIG1        0.0625
     13 C          -6.1755    8.0793    9.7470 C.ar    1  LIG1       -0.0611
     14 H          -6.5472    8.3129    8.9270 H       1  LIG1        0.0618
     15 C          -6.3853    8.8946   10.8650 C.ar    1  LIG1       -0.0612
     16 H          -6.8901    9.6710   10.7814 H       1  LIG1        0.0618
     17 C          -5.8549    8.5591   12.0762 C.ar    1  LIG1       -0.0539
     18 H          -6.0134    9.1059   12.8120 H       1  LIG1        0.0624
     19 C          -5.0685    7.3935   12.2329 C.ar    1  LIG1       -0.0144
     20 C          -4.4901    7.0225   13.4727 C.ar    1  LIG1       -0.0530
     21 H          -4.6361    7.5512   14.2240 H       1  LIG1        0.0624
     22 C          -3.7298    5.9072   13.5778 C.ar    1  LIG1       -0.0436
     23 H          -3.3578    5.6836   14.4002 H       1  LIG1        0.0627
     24 C          -3.4877    5.0704   12.4509 C.ar    1  LIG1        0.1009
     25 C          -2.7010    3.8392   12.5525 C.2     1  LIG1        0.3425
     26 C          -1.4605    2.3936   13.9361 C.3     1  LIG1        0.0820
     27 H          -1.1653    2.3254   14.8476 H       1  LIG1        0.0661
     28 H          -0.6982    2.4123   13.3531 H       1  LIG1        0.0661
     29 H          -2.0089    1.6355   13.7205 H       1  LIG1        0.0661
     30 C           2.2518    1.2271    5.5213 C.ar    2  LIG2        0.1385
     31 C           3.1088    2.3642    5.4586 C.ar    2  LIG2        0.0244
     32 C           3.6593    2.8162    4.2380 C.ar    2  LIG2       -0.0505
     33 H           3.4565    2.3725    3.4464 H       2  LIG2        0.0625
     34 C           4.4879    3.9008    4.2165 C.ar    2  LIG2       -0.0611
     35 H           4.8566    4.1851    3.4114 H       2  LIG2        0.0618
     36 C           4.7859    4.5900    5.4023 C.ar    2  LIG2       -0.0612
     37 H           5.3459    5.3328    5.3770 H       2  LIG2        0.0618
     38 C           4.2616    4.1786    6.5888 C.ar    2  LIG2       -0.0539
     39 H           4.4645    4.6489    7.3651 H       2  LIG2        0.0624
     40 C           3.4140    3.0482    6.6604 C.ar    2  LIG2       -0.0144
     41 C           2.8827    2.5800    7.8939 C.ar    2  LIG2       -0.0530
     42 H           3.0798    3.0303    8.6834 H       2  LIG2        0.0624
     43 C           2.0933    1.4858    7.9232 C.ar    2  LIG2       -0.0436
     44 H           1.7571    1.1880    8.7384 H       2  LIG2        0.0627
     45 C           1.7646    0.7786    6.7333 C.ar    2  LIG2        0.1009
     46 C           0.8970   -0.4068    6.7550 C.2     2  LIG2        0.3425
     47 C          -0.3934   -1.8796    8.0560 C.3     2  LIG2        0.0820
     48 H          -0.6110   -2.0513    8.9745 H       2  LIG2        0.0661
     49 H           0.0237   -2.6556    7.6750 H       2  LIG2        0.0661
     50 H          -1.1960   -1.6765    7.5700 H       2  LIG2        0.0661
@<TRIPOS>BOND
     1    35    34    1
     2    33    32    1
     3    34    32   ar
     4    34    36   ar
     5    32    31   ar
     6     5     6    1
     7     5    30    1
     8    37    36    1
     9    36    38   ar
    10    31    30   ar
    11    31    40   ar
    12    30    45   ar
    13     7    46    2
    14    38    40   ar
    15    38    39    1
    16    40    41   ar
    17    45    46    1
    18    45    43   ar
    19    46     8    1
    20    50    47    1
    21    49    47    1
    22    41    43   ar
    23    41    42    1
    24    43    44    1
    25     8    47    1
    26    47    48    1
    27    14    13    1
    28    12    11    1
    29    13    11   ar
    30    13    15   ar
    31    11    10   ar
    32     1     2    1
    33     1     9    1
    34    16    15    1
    35    15    17   ar
    36    10     9   ar
    37    10    19   ar
    38     9    24   ar
    39     3    25    2
    40    17    19   ar
    41    17    18    1
    42    19    20   ar
    43    24    25    1
    44    24    22   ar
    45    25     4    1
    46    28    26    1
    47    20    22   ar
    48    20    21    1
    49    22    23    1
    50    29    26    1
    51     4    26    1
    52    26    27    1
