@<TRIPOS>MOLECULE
?
 29 31 0 0 0
SMALL
GASTEIGER

@<TRIPOS>ATOM
      1 F           3.9290    6.9762    7.9606 F       1  LIG1       -0.1631
      2 F           5.0295    8.5879    7.0485 F       1  LIG1       -0.1631
      3 F           3.2367    9.0044    8.1706 F       1  LIG1       -0.1631
      4 N           2.8747    7.1817    3.9440 N.ar    1  LIG1       -0.2287
      5 N           3.6083    7.3667    5.0882 N.ar    1  LIG1       -0.1416
      6 N           1.7020    8.4163    6.1238 N.ar    1  LIG1       -0.2211
      7 C           2.9440    7.9749    6.0597 C.ar    1  LIG1        0.2541
      8 C           0.9365    8.0960    5.0090 C.ar    1  LIG1        0.0916
      9 C          -0.4229    8.3918    4.9983 C.ar    1  LIG1       -0.0342
     10 H          -0.8139    8.8359    5.7417 H       1  LIG1        0.0639
     11 C          -1.2126    8.0451    3.9148 C.ar    1  LIG1       -0.0596
     12 H          -2.1403    8.2495    3.9152 H       1  LIG1        0.0618
     13 C          -0.6385    7.3941    2.8216 C.ar    1  LIG1       -0.0596
     14 H          -1.1850    7.1592    2.0801 H       1  LIG1        0.0618
     15 C           0.7034    7.0848    2.7959 C.ar    1  LIG1       -0.0342
     16 H           1.0776    6.6299    2.0508 H       1  LIG1        0.0639
     17 C           1.5121    7.4496    3.8842 C.ar    1  LIG1        0.0914
     18 C           3.6079    6.5893    2.8594 C.ar    1  LIG1        0.0661
     19 C           3.5934    7.1975    1.6037 C.ar    1  LIG1       -0.0362
     20 H           3.0949    7.9929    1.4572 H       1  LIG1        0.0639
     21 C           4.3194    6.6193    0.5740 C.ar    1  LIG1       -0.0598
     22 H           4.3169    7.0203   -0.2873 H       1  LIG1        0.0618
     23 C           5.0508    5.4574    0.7917 C.ar    1  LIG1       -0.0616
     24 H           5.5422    5.0643    0.0794 H       1  LIG1        0.0618
     25 C           5.0630    4.8694    2.0536 C.ar    1  LIG1       -0.0598
     26 H           5.5663    4.0769    2.2018 H       1  LIG1        0.0618
     27 C           4.3438    5.4351    3.0958 C.ar    1  LIG1       -0.0362
     28 H           4.3545    5.0397    3.9592 H       1  LIG1        0.0639
     29 C           3.7871    8.1535    7.3150 C.3     1  LIG1        0.4540
@<TRIPOS>BOND
     1    22    21    1
     2    24    23    1
     3    21    23   ar
     4    21    19   ar
     5    23    25   ar
     6    20    19    1
     7    19    18   ar
     8    16    15    1
     9    25    26    1
    10    25    27   ar
    11    14    13    1
    12    15    13   ar
    13    15    17   ar
    14    13    11   ar
    15    18    27   ar
    16    18     4    1
    17    27    28    1
    18    17     4   ar
    19    17     8   ar
    20    11    12    1
    21    11     9   ar
    22     4     5   ar
    23     9     8   ar
    24     9    10    1
    25     8     6   ar
    26     5     7   ar
    27     7     6   ar
    28     7    29    1
    29     2    29    1
    30    29     1    1
    31    29     3    1
