@<TRIPOS>MOLECULE
?
 52 55 0 0 0
SMALL
GASTEIGER

@<TRIPOS>ATOM
      1 S           0.6038    9.4588    3.9632 S.O2    1  LIG1        0.0750
      2 O           0.9808    9.4370    5.3500 O.2     1  LIG1       -0.1498
      3 O          -0.4594    8.6344    3.4924 O.2     1  LIG1       -0.1498
      4 O           6.4400    8.9771    0.8337 O.2     1  LIG1       -0.1261
      5 O           5.1129    8.3216   -0.7270 O.2     1  LIG1       -0.1261
      6 O           3.9795   13.5111    5.0006 O.3     1  LIG1       -0.3839
      7 H           4.0627   12.7536    5.3536 H       1  LIG1        0.2106
      8 N           5.3283    8.6850    0.4154 N.pl3   1  LIG1        0.0564
      9 N           0.2266   11.0136    3.5979 N.pl3   1  LIG1       -0.1986
     10 C           2.0370    9.0913    2.9881 C.ar    1  LIG1        0.1089
     11 C           1.8497    8.5667    1.7116 C.ar    1  LIG1       -0.0329
     12 H           0.9806    8.3175    1.4206 H       1  LIG1        0.0638
     13 C           2.9399    8.4113    0.8697 C.ar    1  LIG1       -0.0296
     14 H           2.8346    8.0564   -0.0047 H       1  LIG1        0.0641
     15 C           4.1834    8.7880    1.3410 C.ar    1  LIG1        0.1263
     16 C           4.3967    9.2684    2.6198 C.ar    1  LIG1       -0.0296
     17 H           5.2730    9.4821    2.9187 H       1  LIG1        0.0641
     18 C           3.3080    9.4301    3.4537 C.ar    1  LIG1       -0.0329
     19 H           3.4226    9.7676    4.3346 H       1  LIG1        0.0638
     20 C          -0.1135   11.2678    2.1670 C.3     1  LIG1        0.0600
     21 H          -0.7077   10.5488    1.8374 H       1  LIG1        0.0532
     22 H           0.7148   11.2525    1.6249 H       1  LIG1        0.0532
     23 C          -0.7972   12.5966    1.9987 C.ar    1  LIG1       -0.0284
     24 C          -1.9128   12.9347    2.7508 C.ar    1  LIG1       -0.0570
     25 H          -2.2443   12.3273    3.4024 H       1  LIG1        0.0621
     26 C          -2.5466   14.1503    2.5594 C.ar    1  LIG1       -0.0615
     27 H          -3.2987   14.3812    3.0913 H       1  LIG1        0.0618
     28 C          -2.0867   15.0290    1.5932 C.ar    1  LIG1       -0.0617
     29 H          -2.5252   15.8620    1.4582 H       1  LIG1        0.0618
     30 C          -0.9942   14.6943    0.8289 C.ar    1  LIG1       -0.0615
     31 H          -0.6900   15.2888    0.1526 H       1  LIG1        0.0618
     32 C          -0.3355   13.4928    1.0410 C.ar    1  LIG1       -0.0570
     33 H           0.4365   13.2798    0.5295 H       1  LIG1        0.0621
     34 C           1.0154   12.0369    4.2390 C.2     1  LIG1        0.0534
     35 C           0.5680   12.6845    5.4768 C.2     1  LIG1       -0.0259
     36 C          -0.5584   12.4234    6.1308 C.2     1  LIG1       -0.0933
     37 H          -1.1577   11.7644    5.8009 H       1  LIG1        0.0538
     38 H          -0.7647   12.8964    6.9280 H       1  LIG1        0.0538
     39 C           1.5964   13.7544    5.8034 C.3     1  LIG1        0.0179
     40 H           2.0498   13.5654    6.6744 H       1  LIG1        0.0380
     41 C           2.6170   13.7106    4.6142 C.3     1  LIG1        0.0929
     42 C           2.1163   12.5937    3.7454 C.2     1  LIG1       -0.0294
     43 H           2.5370   12.3171    2.9398 H       1  LIG1        0.0619
     44 C           2.5027   15.0833    3.9319 C.3     1  LIG1       -0.0197
     45 H           3.1931   15.7070    4.2712 H       1  LIG1        0.0296
     46 H           2.6005   14.9992    2.9492 H       1  LIG1        0.0296
     47 C           1.1089   15.5636    4.2993 C.3     1  LIG1       -0.0495
     48 H           0.4151   15.1053    3.7628 H       1  LIG1        0.0266
     49 H           1.0203   16.5412    4.1784 H       1  LIG1        0.0266
     50 C           1.0165   15.1750    5.7775 C.3     1  LIG1       -0.0431
     51 H           0.0781   15.1828    6.0898 H       1  LIG1        0.0272
     52 H           1.5507   15.7885    6.3410 H       1  LIG1        0.0272
@<TRIPOS>BOND
     1     5     8    2
     2    14    13    1
     3    31    30    1
     4     8     4    2
     5     8    15    1
     6    33    32    1
     7    30    32   ar
     8    30    28   ar
     9    13    15   ar
    10    13    11   ar
    11    32    23   ar
    12    15    16   ar
    13    12    11    1
    14    29    28    1
    15    28    26   ar
    16    22    20    1
    17    11    10   ar
    18    21    20    1
    19    23    20    1
    20    23    24   ar
    21    20     9    1
    22    26    24   ar
    23    26    27    1
    24    16    17    1
    25    16    18   ar
    26    24    25    1
    27    43    42    1
    28    46    44    1
    29    10    18   ar
    30    10     1    1
    31    18    19    1
    32     3     1    2
    33     9     1    1
    34     9    34    1
    35    42    34    2
    36    42    41    1
    37    48    47    1
    38    44    45    1
    39    44    47    1
    40    44    41    1
    41     1     2    2
    42    49    47    1
    43    34    35    1
    44    47    50    1
    45    41     6    1
    46    41    39    1
    47     6     7    1
    48    35    39    1
    49    35    36    2
    50    50    39    1
    51    50    51    1
    52    50    52    1
    53    37    36    1
    54    39    40    1
    55    36    38    1
