@<TRIPOS>MOLECULE
3a-(2-methylbut-3-en-2-yl)-1-tosyl-1,2,3,3a,8,8a-hexahydropyrrolo[2,3-b]indole
 53 56 0 0 0
SMALL
GASTEIGER

@<TRIPOS>ATOM
      1 S           3.3378    7.3243    4.1109 S.O2    1  LIG1        0.0625
      2 O           4.0496    6.5024    5.0412 O.2     1  LIG1       -0.1528
      3 O           4.0530    8.0895    3.1304 O.2     1  LIG1       -0.1528
      4 N           2.2012    3.9528    3.9163 N.pl3   1  LIG1       -0.3263
      5 H           3.0793    3.9079    3.9734 H       1  LIG1        0.1476
      6 N           2.3588    6.3180    3.2929 N.3     1  LIG1       -0.1555
      7 C           1.1059    1.6513    1.2215 C.ar    1  LIG1       -0.0600
      8 H           1.3202    0.8473    0.8061 H       1  LIG1        0.0618
      9 C           1.9275    2.1374    2.2234 C.ar    1  LIG1       -0.0405
     10 H           2.7024    1.6844    2.4689 H       1  LIG1        0.0636
     11 C           1.5637    3.3190    2.8508 C.ar    1  LIG1        0.0322
     12 C           1.6314    5.2741    4.0677 C.3     1  LIG1        0.1047
     13 H           1.5628    5.5222    5.0128 H       1  LIG1        0.0693
     14 C           2.3236    8.4310    5.0304 C.ar    1  LIG1        0.1056
     15 C           2.0156    8.1447    6.3474 C.ar    1  LIG1       -0.0351
     16 H           2.3841    7.4003    6.7669 H       1  LIG1        0.0637
     17 C           1.1494    8.9818    7.0356 C.ar    1  LIG1       -0.0570
     18 H           0.9458    8.7961    7.9236 H       1  LIG1        0.0621
     19 C           0.5821   10.0911    6.4254 C.ar    1  LIG1       -0.0503
     20 C          -0.3710   10.9820    7.1742 C.3     1  LIG1       -0.0397
     21 H          -0.4490   10.6763    8.0805 H       1  LIG1        0.0278
     22 H          -1.2329   10.9557    6.7519 H       1  LIG1        0.0278
     23 H          -0.0397   11.8824    7.1680 H       1  LIG1        0.0278
     24 C          -0.6588    5.9661    6.7714 C.2     1  LIG1       -0.1021
     25 H          -0.4761    5.1284    7.1311 H       1  LIG1        0.0532
     26 H          -0.6686    6.7169    7.3207 H       1  LIG1        0.0532
     27 C          -0.9024    6.0899    5.4843 C.2     1  LIG1       -0.0845
     28 H          -1.0779    6.9499    5.1765 H       1  LIG1        0.0572
     29 C          -0.9276    4.9859    4.4537 C.3     1  LIG1       -0.0044
     30 C           0.2192    5.2083    3.3987 C.3     1  LIG1        0.0404
     31 C           1.7944    9.5568    4.4044 C.ar    1  LIG1       -0.0351
     32 H           2.0214    9.7568    3.5246 H       1  LIG1        0.0637
     33 C           0.9286   10.3715    5.1062 C.ar    1  LIG1       -0.0570
     34 H           0.5699   11.1216    4.6895 H       1  LIG1        0.0621
     35 C           1.5272    6.8325    2.1890 C.3     1  LIG1        0.0235
     36 H           1.7437    6.3860    1.3558 H       1  LIG1        0.0445
     37 H           1.6534    7.7879    2.0774 H       1  LIG1        0.0445
     38 C           0.1035    6.5221    2.6136 C.3     1  LIG1       -0.0250
     39 H          -0.4712    6.4138    1.8401 H       1  LIG1        0.0288
     40 H          -0.2528    7.2292    3.1741 H       1  LIG1        0.0288
     41 C           0.4026    4.0022    2.4884 C.ar    1  LIG1       -0.0164
     42 C          -0.3811    3.5263    1.4539 C.ar    1  LIG1       -0.0562
     43 H          -1.1361    3.9965    1.1812 H       1  LIG1        0.0621
     44 C          -0.0303    2.3371    0.8252 C.ar    1  LIG1       -0.0614
     45 H          -0.5587    2.0019    0.1378 H       1  LIG1        0.0618
     46 C          -2.2979    5.0426    3.7578 C.3     1  LIG1       -0.0554
     47 H          -2.9920    4.9222    4.4085 H       1  LIG1        0.0238
     48 H          -2.3524    4.3449    3.1004 H       1  LIG1        0.0238
     49 H          -2.4047    5.8953    3.3296 H       1  LIG1        0.0238
     50 C          -0.7800    3.6134    5.1110 C.3     1  LIG1       -0.0554
     51 H           0.0777    3.5533    5.5379 H       1  LIG1        0.0238
     52 H          -0.8529    2.9286    4.4426 H       1  LIG1        0.0238
     53 H          -1.4721    3.4955    5.7657 H       1  LIG1        0.0238
@<TRIPOS>BOND
     1    45    44    1
     2     8     7    1
     3    44     7   ar
     4    44    42   ar
     5    43    42    1
     6     7     9   ar
     7    36    35    1
     8    42    41   ar
     9    39    38    1
    10    37    35    1
    11    35    38    1
    12    35     6    1
    13     9    10    1
    14     9    11   ar
    15    41    11   ar
    16    41    30    1
    17    38    40    1
    18    38    30    1
    19    11     4    1
    20    48    46    1
    21     3     1    2
    22     6    12    1
    23     6     1    1
    24    49    46    1
    25    30    12    1
    26    30    29    1
    27    32    31    1
    28    46    47    1
    29    46    29    1
    30     4     5    1
    31     4    12    1
    32    12    13    1
    33     1    14    1
    34     1     2    2
    35    31    14   ar
    36    31    33   ar
    37    52    50    1
    38    29    50    1
    39    29    27    1
    40    34    33    1
    41    14    15   ar
    42    33    19   ar
    43    50    51    1
    44    50    53    1
    45    28    27    1
    46    27    24    2
    47    15    16    1
    48    15    17   ar
    49    19    17   ar
    50    19    20    1
    51    22    20    1
    52    24    25    1
    53    24    26    1
    54    17    18    1
    55    23    20    1
    56    20    21    1
