@<TRIPOS>MOLECULE
?
 104 106 0 0 0
SMALL
GASTEIGER

@<TRIPOS>ATOM
      1 P          -0.4307   18.8113   11.1562 P.3     1  LIG1       -0.0383
      2 P           4.8063    8.4683   11.4930 P.3     2  LIG2       -0.0383
      3 N           0.2921   13.5452   14.0837 N.pl3   1  LIG1       -0.3360
      4 N           2.4760   17.2411    6.0657 N.pl3   1  LIG1       -0.3360
      5 N           3.0444    3.3668    8.7033 N.pl3   2  LIG2       -0.3360
      6 N           2.8500   13.8866    9.6205 N.pl3   2  LIG2       -0.3360
      7 C          -1.1532   16.7288   12.8760 C.ar    1  LIG1       -0.0521
      8 H          -1.9588   17.2229   12.9736 H       1  LIG1        0.0624
      9 C          -1.0263   15.5266   13.5470 C.ar    1  LIG1       -0.0401
     10 H          -1.7358   15.2199   14.0988 H       1  LIG1        0.0636
     11 C           0.1475   14.7510   13.4213 C.ar    1  LIG1        0.0292
     12 C           1.1628   15.2677   12.6072 C.ar    1  LIG1       -0.0401
     13 H           1.9711   14.7784   12.5044 H       1  LIG1        0.0636
     14 C           1.0142   16.4733   11.9501 C.ar    1  LIG1       -0.0521
     15 H           1.7241   16.7876   11.4031 H       1  LIG1        0.0624
     16 C          -0.1435   17.2448   12.0610 C.ar    1  LIG1       -0.0184
     17 C          -0.8024   12.9818   14.8280 C.3     1  LIG1        0.0004
     18 H          -1.1639   13.6583   15.4392 H       1  LIG1        0.0428
     19 H          -0.4838   12.2122   15.3436 H       1  LIG1        0.0428
     20 H          -1.5040   12.6928   14.2079 H       1  LIG1        0.0428
     21 C           1.4223   12.6928   13.8016 C.3     1  LIG1        0.0004
     22 H           1.4525   12.4989   12.8421 H       1  LIG1        0.0428
     23 H           1.3322   11.8553   14.3020 H       1  LIG1        0.0428
     24 H           2.2486   13.1467   14.0689 H       1  LIG1        0.0428
     25 C          -0.0530   17.6662    8.7156 C.ar    1  LIG1       -0.0521
     26 H          -0.9334   17.3611    8.9001 H       1  LIG1        0.0624
     27 C           0.5572   17.2555    7.5518 C.ar    1  LIG1       -0.0401
     28 H           0.0979   16.6680    6.9635 H       1  LIG1        0.0636
     29 C           1.8456   17.6926    7.2241 C.ar    1  LIG1        0.0292
     30 C           2.4654   18.5733    8.1107 C.ar    1  LIG1       -0.0401
     31 H           3.3263   18.9186    7.9019 H       1  LIG1        0.0636
     32 C           1.8453   18.9539    9.2934 C.ar    1  LIG1       -0.0521
     33 H           2.3081   19.5333    9.8863 H       1  LIG1        0.0624
     34 C           0.5722   18.5167    9.6411 C.ar    1  LIG1       -0.0184
     35 C           1.8012   16.2940    5.2023 C.3     1  LIG1        0.0004
     36 H           1.5238   15.5148    5.7262 H       1  LIG1        0.0428
     37 H           2.4113   16.0099    4.4904 H       1  LIG1        0.0428
     38 H           1.0115   16.7175    4.8057 H       1  LIG1        0.0428
     39 C           3.7081   17.7949    5.6193 C.3     1  LIG1        0.0004
     40 H           3.5448   18.6731    5.2166 H       1  LIG1        0.0428
     41 H           4.1109   17.2002    4.9521 H       1  LIG1        0.0428
     42 H           4.3172   17.8913    6.3807 H       1  LIG1        0.0428
     43 C           0.4561   20.0882   12.2163 C.3     1  LIG1       -0.0095
     44 C           0.4454   21.4093   11.4624 C.3     1  LIG1       -0.0556
     45 H           0.8545   22.1057   12.0172 H       1  LIG1        0.0238
     46 H          -0.4788   21.6581   11.2536 H       1  LIG1        0.0238
     47 H           0.9545   21.3136   10.6305 H       1  LIG1        0.0238
     48 C          -0.4297   20.2322   13.4734 C.3     1  LIG1       -0.0556
     49 H          -0.0500   20.9154   14.0644 H       1  LIG1        0.0238
     50 H          -0.4660   19.3745   13.9479 H       1  LIG1        0.0238
     51 H          -1.3349   20.4967   13.2067 H       1  LIG1        0.0238
     52 C           1.8723   19.7272   12.6828 C.3     1  LIG1       -0.0556
     53 H           2.4784   19.7210   11.9126 H       1  LIG1        0.0238
     54 H           1.8631   18.8402   13.0976 H       1  LIG1        0.0238
     55 H           2.1794   20.3894   13.3367 H       1  LIG1        0.0238
     56 C           4.9888    5.9277   10.5319 C.ar    2  LIG2       -0.0521
     57 H           5.8514    6.0112   10.9219 H       2  LIG2        0.0624
     58 C           4.6510    4.7256    9.9349 C.ar    2  LIG2       -0.0401
     59 H           5.2692    4.0040    9.9461 H       2  LIG2        0.0636
     60 C           3.4029    4.5614    9.3119 C.ar    2  LIG2        0.0292
     61 C           2.5352    5.6607    9.3445 C.ar    2  LIG2       -0.0401
     62 H           1.6869    5.5945    8.9225 H       2  LIG2        0.0636
     63 C           2.8836    6.8378    9.9751 C.ar    2  LIG2       -0.0521
     64 H           2.2543    7.5501    9.9924 H       2  LIG2        0.0624
     65 C           4.1269    7.0257   10.5909 C.ar    2  LIG2       -0.0184
     66 C           3.9125    2.2229    8.7744 C.3     2  LIG2        0.0004
     67 H           4.8093    2.4734    8.4697 H       2  LIG2        0.0428
     68 H           3.5606    1.5100    8.2023 H       2  LIG2        0.0428
     69 H           3.9594    1.9061    9.7011 H       2  LIG2        0.0428
     70 C           1.6715    3.1228    8.3722 C.3     2  LIG2        0.0004
     71 H           1.1188    3.2222    9.1751 H       2  LIG2        0.0428
     72 H           1.5769    2.2135    8.0214 H       2  LIG2        0.0428
     73 H           1.3797    3.7668    7.6927 H       2  LIG2        0.0428
     74 C           2.7994   10.2603   10.3203 C.ar    2  LIG2       -0.0521
     75 H           2.1838    9.5387   10.2584 H       2  LIG2        0.0624
     76 C           2.3959   11.5158    9.9132 C.ar    2  LIG2       -0.0401
     77 H           1.5254   11.6305    9.5501 H       2  LIG2        0.0636
     78 C           3.2463   12.6299   10.0243 C.ar    2  LIG2        0.0292
     79 C           4.5143   12.3972   10.5619 C.ar    2  LIG2       -0.0401
     80 H           5.1115   13.1260   10.6828 H       2  LIG2        0.0636
     81 C           4.9142   11.1273   10.9203 C.ar    2  LIG2       -0.0521
     82 H           5.7965   11.0075   11.2507 H       2  LIG2        0.0624
     83 C           4.0863   10.0093   10.8213 C.ar    2  LIG2       -0.0184
     84 C           1.5334   14.1228    9.1020 C.3     2  LIG2        0.0004
     85 H           1.3708   13.5283    8.3412 H       2  LIG2        0.0428
     86 H           1.4602   15.0548    8.8089 H       2  LIG2        0.0428
     87 H           0.8703   13.9471    9.8027 H       2  LIG2        0.0428
     88 C           3.7361   15.0167    9.7729 C.3     2  LIG2        0.0004
     89 H           3.9323   15.1518   10.7232 H       2  LIG2        0.0428
     90 H           3.3072   15.8201    9.4097 H       2  LIG2        0.0428
     91 H           4.5703   14.8444    9.2886 H       2  LIG2        0.0428
     92 C           3.9881    8.3272   13.1898 C.3     2  LIG2       -0.0095
     93 C           2.4613    8.3738   13.1595 C.3     2  LIG2       -0.0556
     94 H           2.1207    7.6079   12.6523 H       2  LIG2        0.0238
     95 H           2.1685    9.2045   12.7315 H       2  LIG2        0.0238
     96 H           2.1149    8.3381   14.0749 H       2  LIG2        0.0238
     97 C           4.5168    9.5022   14.0250 C.3     2  LIG2       -0.0556
     98 H           4.1820    9.4273   14.9431 H       2  LIG2        0.0238
     99 H           4.2083   10.3453   13.6326 H       2  LIG2        0.0238
    100 H           5.4960    9.4830   14.0316 H       2  LIG2        0.0238
    101 C           4.4609    7.0210   13.8164 C.3     2  LIG2       -0.0556
    102 H           4.1622    6.9787   14.7488 H       2  LIG2        0.0238
    103 H           5.4397    6.9787   13.7850 H       2  LIG2        0.0238
    104 H           4.0850    6.2649   13.3188 H       2  LIG2        0.0238
@<TRIPOS>BOND
     1    37    35    1
     2    38    35    1
     3    41    39    1
     4    35    36    1
     5    35     4    1
     6    40    39    1
     7    39     4    1
     8    39    42    1
     9     4    29    1
    10    28    27    1
    11    29    27   ar
    12    29    30   ar
    13    27    25   ar
    14    73    70    1
    15    31    30    1
    16    72    70    1
    17    30    32   ar
    18    68    66    1
    19    85    84    1
    20    70     5    1
    21    70    71    1
    22    67    66    1
    23     5    66    1
    24     5    60    1
    25    25    26    1
    26    25    34   ar
    27    66    69    1
    28    86    84    1
    29    62    61    1
    30    84     6    1
    31    84    87    1
    32    91    88    1
    33    32    34   ar
    34    32    33    1
    35    60    61   ar
    36    60    58   ar
    37    61    63   ar
    38    90    88    1
    39    77    76    1
    40     6    88    1
    41     6    78    1
    42    34     1    1
    43    88    89    1
    44    76    78   ar
    45    76    74   ar
    46    58    59    1
    47    58    56   ar
    48    63    64    1
    49    63    65   ar
    50    78    79   ar
    51    75    74    1
    52    74    83   ar
    53    56    65   ar
    54    56    57    1
    55    79    80    1
    56    79    81   ar
    57    65     2    1
    58    47    44    1
    59    83    81   ar
    60    83     2    1
    61    81    82    1
    62     1    16    1
    63     1    43    1
    64    46    44    1
    65    15    14    1
    66    44    45    1
    67    44    43    1
    68     2    92    1
    69    53    52    1
    70    14    16   ar
    71    14    12   ar
    72    16     7   ar
    73    43    52    1
    74    43    48    1
    75    13    12    1
    76    12    11   ar
    77    94    93    1
    78    52    54    1
    79    52    55    1
    80    95    93    1
    81    22    21    1
    82     7     8    1
    83     7     9   ar
    84    93    92    1
    85    93    96    1
    86    92   101    1
    87    92    97    1
    88    51    48    1
    89   104   101    1
    90    11     9   ar
    91    11     3    1
    92    48    50    1
    93    48    49    1
    94     9    10    1
    95    99    97    1
    96   103   101    1
    97    21    24    1
    98    21     3    1
    99    21    23    1
   100   101   102    1
   101    97   100    1
   102    97    98    1
   103     3    17    1
   104    20    17    1
   105    17    19    1
   106    17    18    1
