@<TRIPOS>MOLECULE
?
 48 49 0 0 0
SMALL
GASTEIGER

@<TRIPOS>ATOM
      1 O           5.6075    3.3409    5.4739 O.3     1  LIG1       -0.4948
      2 O           1.4546   -0.1956    5.2466 O.2     1  LIG1       -0.2700
      3 N           1.1644    0.4938    7.3914 N.am    1  LIG1       -0.2980
      4 C           5.3513    0.4268    4.8117 C.ar    1  LIG1       -0.0401
      5 C           4.6618    0.0500    3.6559 C.ar    1  LIG1       -0.0580
      6 H           3.7121    0.0823    3.6439 H       1  LIG1        0.0620
      7 C           5.3486   -0.3692    2.5255 C.ar    1  LIG1       -0.0615
      8 H           4.8699   -0.6168    1.7442 H       1  LIG1        0.0618
      9 C           6.7306   -0.4284    2.5361 C.ar    1  LIG1       -0.0617
     10 H           7.2009   -0.7260    1.7664 H       1  LIG1        0.0618
     11 C           7.4238   -0.0515    3.6726 C.ar    1  LIG1       -0.0615
     12 H           8.3731   -0.0892    3.6818 H       1  LIG1        0.0618
     13 C           6.7373    0.3815    4.7998 C.ar    1  LIG1       -0.0580
     14 H           7.2233    0.6491    5.5710 H       1  LIG1        0.0620
     15 C           4.5274    0.8183    6.0476 C.3     1  LIG1        0.0106
     16 H           3.8841    0.0661    6.1890 H       1  LIG1        0.0396
     17 C           5.3185    0.9244    7.3420 C.3     1  LIG1       -0.0542
     18 H           5.7732    0.0746    7.5177 H       1  LIG1        0.0239
     19 H           4.7079    1.1275    8.0822 H       1  LIG1        0.0239
     20 H           5.9833    1.6405    7.2604 H       1  LIG1        0.0239
     21 C           3.6645    2.0473    5.7657 C.ar    1  LIG1        0.0135
     22 C           2.2781    1.9681    5.8084 C.ar    1  LIG1        0.0441
     23 C           1.4712    3.0779    5.5218 C.ar    1  LIG1       -0.0491
     24 H           0.5251    3.0002    5.5475 H       1  LIG1        0.0625
     25 C           2.0623    4.2846    5.2022 C.ar    1  LIG1       -0.0576
     26 H           1.5204    5.0375    4.9975 H       1  LIG1        0.0619
     27 C           3.4417    4.4030    5.1784 C.ar    1  LIG1       -0.0196
     28 H           3.8429    5.2390    4.9700 H       1  LIG1        0.0654
     29 C           4.2408    3.3017    5.4597 C.ar    1  LIG1        0.1245
     30 C           6.2206    4.6122    5.2450 C.3     1  LIG1        0.0788
     31 H           6.0100    4.9183    4.3390 H       1  LIG1        0.0660
     32 H           7.1924    4.5292    5.3437 H       1  LIG1        0.0660
     33 H           5.8804    5.2613    5.8963 H       1  LIG1        0.0660
     34 C           1.6049    0.6622    6.1294 C.2     1  LIG1        0.2470
     35 C           1.3540    1.4743    8.4737 C.3     1  LIG1        0.0121
     36 H           2.0522    2.1219    8.2037 H       1  LIG1        0.0462
     37 H           1.6734    1.0037    9.2842 H       1  LIG1        0.0462
     38 C           0.0797    2.2327    8.8121 C.3     1  LIG1       -0.0493
     39 H          -0.1923    2.7733    8.0417 H       1  LIG1        0.0245
     40 H           0.2428    2.8187    9.5807 H       1  LIG1        0.0245
     41 H          -0.6318    1.5959    9.0320 H       1  LIG1        0.0245
     42 C           0.5187   -0.7691    7.7645 C.3     1  LIG1        0.0121
     43 H           0.0587   -1.1467    6.9729 H       1  LIG1        0.0462
     44 H          -0.1643   -0.5930    8.4584 H       1  LIG1        0.0462
     45 C           1.5161   -1.7789    8.2913 C.3     1  LIG1       -0.0493
     46 H           2.1355   -2.0319    7.5739 H       1  LIG1        0.0245
     47 H           1.0398   -2.5749    8.6074 H       1  LIG1        0.0245
     48 H           2.0196   -1.3844    9.0333 H       1  LIG1        0.0245
@<TRIPOS>BOND
     1     8     7    1
     2    10     9    1
     3     7     9   ar
     4     7     5   ar
     5     9    11   ar
     6     6     5    1
     7     5     4   ar
     8    11    12    1
     9    11    13   ar
    10    31    30    1
    11    13     4   ar
    12    13    14    1
    13     4    15    1
    14    28    27    1
    15    26    25    1
    16    27    25   ar
    17    27    29   ar
    18    25    23   ar
    19    30    32    1
    20    30     1    1
    21    30    33    1
    22     2    34    2
    23    29     1    1
    24    29    21   ar
    25    23    24    1
    26    23    22   ar
    27    21    22   ar
    28    21    15    1
    29    22    34    1
    30    15    16    1
    31    15    17    1
    32    34     3   am
    33    43    42    1
    34    20    17    1
    35    17    18    1
    36    17    19    1
    37     3    42    1
    38     3    35    1
    39    46    45    1
    40    42    45    1
    41    42    44    1
    42    39    38    1
    43    36    35    1
    44    45    47    1
    45    45    48    1
    46    35    38    1
    47    35    37    1
    48    38    41    1
    49    38    40    1
