@<TRIPOS>MOLECULE
?
 88 92 0 0 0
SMALL
GASTEIGER

@<TRIPOS>ATOM
      1 C          -0.6050    0.5531    3.0448 C.2     1  LIG1        0.0200
      2 H          -0.8233    0.7520    2.1634 H       1  LIG1        0.0801
      3 C          -1.5185   -0.1066    3.7526 C.2     1  LIG1        0.0043
      4 C          -2.7681   -0.5447    3.0782 C.ar    1  LIG1       -0.0161
      5 C          -3.9613   -0.6344    3.7841 C.ar    1  LIG1       -0.0540
      6 H          -3.9719   -0.4371    4.6937 H       1  LIG1        0.0624
      7 C          -5.1347   -1.0125    3.1555 C.ar    1  LIG1       -0.0612
      8 H          -5.9228   -1.0690    3.6470 H       1  LIG1        0.0618
      9 C          -5.1472   -1.3052    1.8161 C.ar    1  LIG1       -0.0617
     10 H          -5.9388   -1.5556    1.3973 H       1  LIG1        0.0618
     11 C          -3.9725   -1.2248    1.0988 C.ar    1  LIG1       -0.0612
     12 H          -3.9751   -1.4132    0.1888 H       1  LIG1        0.0618
     13 C          -2.7973   -0.8674    1.7181 C.ar    1  LIG1       -0.0540
     14 H          -2.0104   -0.8399    1.2247 H       1  LIG1        0.0624
     15 C          -1.3492   -0.4473    5.1936 C.ar    1  LIG1       -0.0161
     16 C          -1.3195   -1.7817    5.5926 C.ar    1  LIG1       -0.0540
     17 H          -1.3960   -2.4550    4.9562 H       1  LIG1        0.0624
     18 C          -1.1777   -2.1128    6.9238 C.ar    1  LIG1       -0.0612
     19 H          -1.1420   -3.0072    7.1754 H       1  LIG1        0.0618
     20 C          -1.0878   -1.1316    7.8782 C.ar    1  LIG1       -0.0617
     21 H          -0.9988   -1.3577    8.7759 H       1  LIG1        0.0618
     22 C          -1.1307    0.1817    7.4985 C.ar    1  LIG1       -0.0612
     23 H          -1.0769    0.8489    8.1447 H       1  LIG1        0.0618
     24 C          -1.2551    0.5290    6.1679 C.ar    1  LIG1       -0.0540
     25 H          -1.2750    1.4274    5.9255 H       1  LIG1        0.0624
     26 N           0.6523    0.9782    3.4904 N.pl3   1  LIG1       -0.2228
     27 H           0.8317    0.9408    4.3304 H       1  LIG1        0.1730
     28 S           1.7803    1.5399    2.4686 S.O2    1  LIG1        0.0719
     29 O           1.4945    0.9795    1.1997 O.2     1  LIG1       -0.1500
     30 O           3.0446    1.3039    3.0883 O.2     1  LIG1       -0.1500
     31 C           1.5580    3.2777    2.3436 C.ar    1  LIG1        0.1085
     32 C           2.5694    4.1297    2.7328 C.ar    1  LIG1       -0.0348
     33 H           3.3654    3.7895    3.0752 H       1  LIG1        0.0637
     34 C           2.3884    5.4894    2.6101 C.ar    1  LIG1       -0.0570
     35 H           3.0780    6.0577    2.8683 H       1  LIG1        0.0621
     36 C           1.2302    6.0355    2.1215 C.ar    1  LIG1       -0.0503
     37 C           0.2273    5.1603    1.7286 C.ar    1  LIG1       -0.0570
     38 H          -0.5673    5.5035    1.3901 H       1  LIG1        0.0621
     39 C           0.3825    3.7955    1.8287 C.ar    1  LIG1       -0.0348
     40 H          -0.2975    3.2262    1.5520 H       1  LIG1        0.0637
     41 C           1.0171    7.5285    2.0069 C.3     1  LIG1       -0.0397
     42 H           1.7932    7.9878    2.3360 H       1  LIG1        0.0278
     43 H           0.2515    7.7818    2.5267 H       1  LIG1        0.0278
     44 H           0.8710    7.7617    1.0880 H       1  LIG1        0.0278
     45 C           5.7294    1.9226    6.1757 C.2     2  LIG2        0.0200
     46 H           5.9429    1.6959    7.0513 H       2  LIG2        0.0801
     47 C           6.6428    2.5995    5.4880 C.2     2  LIG2        0.0043
     48 C           7.8940    3.0304    6.1561 C.ar    2  LIG2       -0.0161
     49 C           7.9593    3.2817    7.5251 C.ar    2  LIG2       -0.0540
     50 H           7.1885    3.2101    8.0404 H       2  LIG2        0.0624
     51 C           9.1467    3.6360    8.1270 C.ar    2  LIG2       -0.0612
     52 H           9.1717    3.7804    9.0456 H       2  LIG2        0.0618
     53 C          10.2972    3.7774    7.3858 C.ar    2  LIG2       -0.0617
     54 H          11.0939    4.0247    7.7958 H       2  LIG2        0.0618
     55 C          10.2534    3.5482    6.0367 C.ar    2  LIG2       -0.0612
     56 H          11.0268    3.6431    5.5299 H       2  LIG2        0.0618
     57 C           9.0697    3.1767    5.4166 C.ar    2  LIG2       -0.0540
     58 H           9.0592    3.0233    4.4994 H       2  LIG2        0.0624
     59 C           6.4553    2.9506    4.0515 C.ar    2  LIG2       -0.0161
     60 C           6.3873    4.2740    3.6540 C.ar    2  LIG2       -0.0540
     61 H           6.4422    4.9483    4.2908 H       2  LIG2        0.0624
     62 C           6.2386    4.6061    2.3166 C.ar    2  LIG2       -0.0612
     63 H           6.1811    5.4985    2.0627 H       2  LIG2        0.0618
     64 C           6.1780    3.6128    1.3608 C.ar    2  LIG2       -0.0617
     65 H           6.0927    3.8319    0.4604 H       2  LIG2        0.0618
     66 C           6.2463    2.3056    1.7473 C.ar    2  LIG2       -0.0612
     67 H           6.2010    1.6343    1.1060 H       2  LIG2        0.0618
     68 C           6.3810    1.9674    3.0761 C.ar    2  LIG2       -0.0540
     69 H           6.4230    1.0710    3.3215 H       2  LIG2        0.0624
     70 N           4.4705    1.5174    5.7022 N.pl3   2  LIG2       -0.2228
     71 H           4.2966    1.5980    4.8645 H       2  LIG2        0.1730
     72 S           3.3346    0.9023    6.6828 S.O2    2  LIG2        0.0719
     73 O           3.5963    1.4149    7.9823 O.2     2  LIG2       -0.1500
     74 O           2.0778    1.1578    6.0608 O.2     2  LIG2       -0.1500
     75 C           3.5687   -0.8363    6.7292 C.ar    2  LIG2        0.1085
     76 C           4.7134   -1.3658    7.3020 C.ar    2  LIG2       -0.0348
     77 H           5.3689   -0.8015    7.6447 H       2  LIG2        0.0637
     78 C           4.8753   -2.7255    7.3599 C.ar    2  LIG2       -0.0570
     79 H           5.6477   -3.0778    7.7418 H       2  LIG2        0.0621
     80 C           3.9100   -3.5866    6.8607 C.ar    2  LIG2       -0.0503
     81 C           2.7815   -3.0425    6.3010 C.ar    2  LIG2       -0.0570
     82 H           2.1257   -3.6088    5.9615 H       2  LIG2        0.0621
     83 C           2.5931   -1.6807    6.2287 C.ar    2  LIG2       -0.0348
     84 H           1.8197   -1.3325    5.8482 H       2  LIG2        0.0637
     85 C           4.1016   -5.0856    6.9463 C.3     2  LIG2       -0.0397
     86 H           3.3494   -5.5277    6.5442 H       2  LIG2        0.0278
     87 H           4.1710   -5.3471    7.8677 H       2  LIG2        0.0278
     88 H           4.9039   -5.3319    6.4812 H       2  LIG2        0.0278
@<TRIPOS>BOND
     1    12    11    1
     2    65    64    1
     3    44    41    1
     4    11    13   ar
     5    11     9   ar
     6    67    66    1
     7    29    28    2
     8    14    13    1
     9    64    66   ar
    10    64    62   ar
    11    38    37    1
    12    10     9    1
    13    40    39    1
    14    13     4   ar
    15    37    39   ar
    16    37    36   ar
    17    66    68   ar
    18     9     7   ar
    19    39    31   ar
    20    41    36    1
    21    41    42    1
    22    41    43    1
    23    63    62    1
    24    36    34   ar
    25     2     1    1
    26    62    60   ar
    27    31    28    1
    28    31    32   ar
    29    28    30    2
    30    28    26    1
    31    34    32   ar
    32    34    35    1
    33    32    33    1
    34     1    26    1
    35     1     3    2
    36    68    69    1
    37    68    59   ar
    38     4     3    1
    39     4     5   ar
    40     7     8    1
    41     7     5   ar
    42    26    27    1
    43    60    59   ar
    44    60    61    1
    45     3    15    1
    46     5     6    1
    47    59    47    1
    48    58    57    1
    49    71    70    1
    50    17    16    1
    51    15    16   ar
    52    15    24   ar
    53    57    55   ar
    54    57    48   ar
    55    47    48    1
    56    47    45    2
    57    56    55    1
    58    16    18   ar
    59    70    45    1
    60    70    72    1
    61    84    83    1
    62    25    24    1
    63    82    81    1
    64    55    53   ar
    65    74    72    2
    66    48    49   ar
    67    24    22   ar
    68    45    46    1
    69    83    81   ar
    70    83    75   ar
    71    81    80   ar
    72    88    85    1
    73    86    85    1
    74    72    75    1
    75    72    73    2
    76    75    76   ar
    77    80    85    1
    78    80    78   ar
    79    18    19    1
    80    18    20   ar
    81    85    87    1
    82    76    78   ar
    83    76    77    1
    84    78    79    1
    85    53    54    1
    86    53    51   ar
    87    22    20   ar
    88    22    23    1
    89    49    50    1
    90    49    51   ar
    91    20    21    1
    92    51    52    1
