@<TRIPOS>MOLECULE
?
 49 50 0 0 0
SMALL
GASTEIGER

@<TRIPOS>ATOM
      1 N           3.8768   -1.1291    8.2708 N.pl3   1  LIG1       -0.2958
      2 N           5.2227   -0.0291    6.9400 N.pl3   1  LIG1       -0.2958
      3 F           1.9644   -0.3852   10.0789 F       1  LIG1       -0.2035
      4 F           3.7347   -3.7089    7.3189 F       1  LIG1       -0.2035
      5 F           3.8996    2.3671    6.5215 F       1  LIG1       -0.2035
      6 F           7.4450   -0.4706    5.3884 F       1  LIG1       -0.2035
      7 C           4.0150   -0.5726    7.0664 C.3     1  LIG1        0.1718
      8 C           5.0770   -0.9330    9.1105 C.3     1  LIG1        0.0305
      9 H           5.4311   -1.7991    9.4364 H       1  LIG1        0.0480
     10 H           4.8802   -0.3509    9.8865 H       1  LIG1        0.0480
     11 C           6.0552   -0.2630    8.1504 C.3     1  LIG1        0.0305
     12 H           6.3933    0.5903    8.5217 H       1  LIG1        0.0480
     13 H           6.8217   -0.8563    7.9487 H       1  LIG1        0.0480
     14 C           2.9884   -0.5992    6.0268 C.ar    1  LIG1       -0.0019
     15 C           1.6292   -0.5021    6.3528 C.ar    1  LIG1       -0.0546
     16 H           1.3628   -0.3905    7.2576 H       1  LIG1        0.0622
     17 C           0.6775   -0.5687    5.3542 C.ar    1  LIG1       -0.0585
     18 H          -0.2417   -0.5099    5.5860 H       1  LIG1        0.0620
     19 C           1.0336   -0.7198    4.0123 C.ar    1  LIG1       -0.0504
     20 C           2.3962   -0.7988    3.7002 C.ar    1  LIG1       -0.0585
     21 H           2.6604   -0.8931    2.7925 H       1  LIG1        0.0620
     22 C           3.3623   -0.7431    4.6830 C.ar    1  LIG1       -0.0546
     23 H           4.2809   -0.8020    4.4496 H       1  LIG1        0.0622
     24 C          -0.0093   -0.7663    2.9322 C.3     1  LIG1       -0.0397
     25 H          -0.8720   -1.0173    3.3220 H       1  LIG1        0.0278
     26 H           0.2491   -1.4281    2.2572 H       1  LIG1        0.0278
     27 H          -0.0849    0.1159    2.5128 H       1  LIG1        0.0278
     28 C           2.8537   -2.0289    8.6837 C.ar    1  LIG1        0.1029
     29 C           1.9134   -1.6551    9.6303 C.ar    1  LIG1        0.1472
     30 C           0.9413   -2.5159   10.0855 C.ar    1  LIG1       -0.0244
     31 H           0.3090   -2.2384   10.7383 H       1  LIG1        0.0647
     32 C           0.9123   -3.8002    9.5631 C.ar    1  LIG1       -0.0562
     33 H           0.2385   -4.4033    9.8536 H       1  LIG1        0.0619
     34 C           1.8434   -4.2260    8.6272 C.ar    1  LIG1       -0.0244
     35 H           1.8187   -5.1096    8.2797 H       1  LIG1        0.0647
     36 C           2.8019   -3.3322    8.2186 C.ar    1  LIG1        0.1472
     37 C           5.6455    0.9150    5.9617 C.ar    1  LIG1        0.1029
     38 C           5.0062    2.1296    5.7887 C.ar    1  LIG1        0.1472
     39 C           5.4614    3.0910    4.9130 C.ar    1  LIG1       -0.0244
     40 H           4.9929    3.9097    4.8029 H       1  LIG1        0.0647
     41 C           6.6193    2.8343    4.1967 C.ar    1  LIG1       -0.0562
     42 H           6.9466    3.4882    3.5901 H       1  LIG1        0.0619
     43 C           7.3064    1.6450    4.3487 C.ar    1  LIG1       -0.0244
     44 H           8.1048    1.4791    3.8611 H       1  LIG1        0.0647
     45 C           6.8054    0.7048    5.2254 C.ar    1  LIG1        0.1472
     46 O           7.6647    5.9501    1.4041 O.3     2  HOH2       -0.4105
     47 BR          9.2369    2.9549    1.3335 Br      3  LIG3        0.0000
     48 H           8.1019    5.2415    1.4422 H       0  HOH0        0.2052
     49 H           8.0661    6.3691    0.8131 H       0  HOH0        0.2052
@<TRIPOS>BOND
     1    49    46    1
     2    46    48    1
     3    26    24    1
     4    27    24    1
     5    21    20    1
     6    24    25    1
     7    24    19    1
     8    42    41    1
     9    20    19   ar
    10    20    22   ar
    11    44    43    1
    12    19    17   ar
    13    41    43   ar
    14    41    39   ar
    15    43    45   ar
    16    23    22    1
    17    22    14   ar
    18    40    39    1
    19    39    38   ar
    20    45     6    1
    21    45    37   ar
    22    17    18    1
    23    17    15   ar
    24    38    37   ar
    25    38     5    1
    26    37     2    1
    27    14    15   ar
    28    14     7    1
    29    15    16    1
    30     2     7    1
    31     2    11    1
    32     7     1    1
    33     4    36    1
    34    13    11    1
    35    11    12    1
    36    11     8    1
    37    36    34   ar
    38    36    28   ar
    39     1    28    1
    40     1     8    1
    41    35    34    1
    42    34    32   ar
    43    28    29   ar
    44     8     9    1
    45     8    10    1
    46    32    33    1
    47    32    30   ar
    48    29     3    1
    49    29    30   ar
    50    30    31    1
