@<TRIPOS>MOLECULE
C19 H19 Br O2
 82 86 0 0 0
SMALL
GASTEIGER

@<TRIPOS>ATOM
      1 BR          0.3018   -2.4412    3.2254 Br      1  LIG1       -0.0503
      2 BR          4.5013    6.0640    6.1541 Br      2  LIG2       -0.0503
      3 O           7.2611    1.1167    7.5091 O.3     1  LIG1       -0.3862
      4 O           5.2903    3.7190   12.4066 O.3     2  LIG2       -0.3862
      5 O           5.8021    0.8108    5.4158 O.3     1  LIG1       -0.3862
      6 O           6.6773    4.3594   14.5667 O.3     2  LIG2       -0.3862
      7 C           8.8544    5.3941   14.4895 C.ar    2  LIG2       -0.0182
      8 C           6.1498    4.5482    7.9101 C.ar    2  LIG2       -0.0474
      9 C           4.7446    0.5238    6.3571 C.3     1  LIG1        0.0919
     10 C           1.6864   -1.4990    4.1451 C.ar    1  LIG1        0.0179
     11 C           5.0815    5.4216    7.8525 C.ar    2  LIG2        0.0179
     12 C           4.4429    5.8628    8.9861 C.ar    2  LIG2       -0.0474
     13 C           6.2229    0.6478    8.3870 C.3     1  LIG1        0.0919
     14 C           6.8564    0.0553    9.6266 C.ar    1  LIG1       -0.0182
     15 C           4.8867    5.3981   10.2245 C.ar    2  LIG2       -0.0551
     16 C           7.3928    5.1147   12.3801 C.3     2  LIG2        0.0491
     17 C           7.9157   -0.8193    9.5471 C.ar    1  LIG1       -0.0561
     18 C           5.2761   -0.2720    7.5932 C.3     1  LIG1        0.0491
     19 C           6.3532    0.3777   10.9066 C.ar    1  LIG1       -0.0561
     20 C           5.9669    4.5422   10.3110 C.ar    2  LIG2       -0.0182
     21 C           7.8611    4.5357   13.7660 C.3     2  LIG2        0.0919
     22 C           2.3339    0.1357    5.7361 C.ar    1  LIG1       -0.0551
     23 C           6.5914    4.1219    9.1543 C.ar    2  LIG2       -0.0551
     24 C           7.5338    7.4594   12.1646 C.2     2  LIG2       -0.0872
     25 C           1.3395   -0.5278    5.0299 C.ar    1  LIG1       -0.0474
     26 C           3.6707   -0.2064    5.5460 C.ar    1  LIG1       -0.0182
     27 C           8.6431    5.4721   11.5126 C.3     2  LIG2       -0.0351
     28 C          10.2172    5.0604   14.4123 C.ar    2  LIG2       -0.0561
     29 C          11.1806    5.8811   15.0263 C.ar    2  LIG2       -0.0614
     30 C           8.8709    6.9619   11.6761 C.3     2  LIG2       -0.0338
     31 C           8.4994    6.4917   15.2153 C.ar    2  LIG2       -0.0561
     32 C           6.4833    4.0904   11.6589 C.3     2  LIG2        0.0919
     33 C           4.0153   -1.1838    4.6370 C.ar    1  LIG1       -0.0551
     34 C           5.1212   -2.6220    7.4769 C.2     1  LIG1       -0.0872
     35 C           8.4303   -1.4132   10.6785 C.ar    1  LIG1       -0.0614
     36 C           4.0761   -0.7212    8.4907 C.3     1  LIG1       -0.0351
     37 C           6.7513    6.4857   12.5678 C.2     2  LIG2       -0.0763
     38 C           9.4389    7.3062   15.8144 C.ar    2  LIG2       -0.0614
     39 C           3.8070   -2.1887    8.1451 C.3     1  LIG1       -0.0338
     40 C           3.0097   -1.8571    3.9285 C.ar    1  LIG1       -0.0474
     41 C          10.7728    6.9985   15.6842 C.ar    2  LIG2       -0.0617
     42 C           7.9247   -1.1103   11.9446 C.ar    1  LIG1       -0.0617
     43 C           5.8855   -1.5931    7.2073 C.2     1  LIG1       -0.0763
     44 C           6.8984   -0.1860   12.0390 C.ar    1  LIG1       -0.0614
     45 H           7.8931    1.4285    7.9654 H       1  LIG1        0.2103
     46 H           5.4945    3.5825   13.2095 H       2  LIG2        0.2103
     47 H           6.5731    4.2461    7.1151 H       2  LIG2        0.0629
     48 H           4.3629    1.3899    6.6785 H       1  LIG1        0.0653
     49 H           6.4456    1.1702    5.8191 H       1  LIG1        0.2103
     50 H           3.7149    6.4704    8.9273 H       2  LIG2        0.0629
     51 H           5.6920    1.4446    8.6739 H       1  LIG1        0.0653
     52 H           4.4419    5.6741   11.0183 H       2  LIG2        0.0621
     53 H           8.2971   -1.0167    8.7004 H       1  LIG1        0.0621
     54 H           5.6311    0.9901   10.9872 H       1  LIG1        0.0621
     55 H           8.2737    3.6377   13.6105 H       2  LIG2        0.0653
     56 H           2.1027    0.8231    6.3502 H       1  LIG1        0.0621
     57 H           7.3344    3.5335    9.2107 H       2  LIG2        0.0621
     58 H           7.2851    8.3761   12.1796 H       2  LIG2        0.0569
     59 H           0.4258   -0.3049    5.1647 H       1  LIG1        0.0629
     60 H           9.4345    4.9656   11.8236 H       2  LIG2        0.0278
     61 H           8.4786    5.2496   10.5621 H       2  LIG2        0.0278
     62 H          10.4874    4.2783   13.9457 H       2  LIG2        0.0621
     63 H           6.8828    3.9906   15.2925 H       2  LIG2        0.2103
     64 H          12.1033    5.6577   14.9814 H       2  LIG2        0.0618
     65 H           9.5842    7.1439   12.3386 H       2  LIG2        0.0308
     66 H           9.1150    7.3823   10.8133 H       2  LIG2        0.0308
     67 H           7.5785    6.7014   15.3121 H       2  LIG2        0.0621
     68 H           7.0197    3.2597   11.5137 H       2  LIG2        0.0653
     69 H           4.9289   -1.4006    4.4919 H       1  LIG1        0.0621
     70 H           5.3506   -3.5240    7.2833 H       1  LIG1        0.0569
     71 H           9.1405   -2.0395   10.5955 H       1  LIG1        0.0618
     72 H           4.3065   -0.6272    9.4492 H       1  LIG1        0.0278
     73 H           3.2765   -0.1681    8.3018 H       1  LIG1        0.0278
     74 H           5.8850    6.6193   12.9342 H       2  LIG2        0.0576
     75 H           9.1669    8.0686   16.3097 H       2  LIG2        0.0618
     76 H           3.6263   -2.7224    8.9607 H       1  LIG1        0.0308
     77 H           3.0419   -2.2771    7.5241 H       1  LIG1        0.0308
     78 H           3.2299   -2.5450    3.3122 H       1  LIG1        0.0629
     79 H          11.4232    7.5797   16.0609 H       2  LIG2        0.0618
     80 H           8.2756   -1.5291   12.7222 H       1  LIG1        0.0618
     81 H           6.7427   -1.6732    6.8052 H       1  LIG1        0.0576
     82 H           6.5665    0.0617   12.8939 H       1  LIG1        0.0618
@<TRIPOS>BOND
     1     1    10    1
     2    78    40    1
     3    40    10   ar
     4    40    33   ar
     5    10    25   ar
     6    69    33    1
     7    33    26   ar
     8    25    59    1
     9    25    22   ar
    10     5    49    1
    11     5     9    1
    12    26    22   ar
    13    26     9    1
    14    22    56    1
    15     2    11    1
    16     9    48    1
    17     9    18    1
    18    81    43    1
    19    47     8    1
    20    43    34    2
    21    43    18    1
    22    70    34    1
    23    34    39    1
    24     3    45    1
    25     3    13    1
    26    77    39    1
    27    18    13    1
    28    18    36    1
    29    11     8   ar
    30    11    12   ar
    31     8    23   ar
    32    39    36    1
    33    39    76    1
    34    73    36    1
    35    13    51    1
    36    13    14    1
    37    36    72    1
    38    53    17    1
    39    50    12    1
    40    12    15   ar
    41    23    57    1
    42    23    20   ar
    43    17    14   ar
    44    17    35   ar
    45    14    19   ar
    46    15    20   ar
    47    15    52    1
    48    20    32    1
    49    61    27    1
    50    71    35    1
    51    35    42   ar
    52    66    30    1
    53    19    54    1
    54    19    44   ar
    55    27    30    1
    56    27    60    1
    57    27    16    1
    58    68    32    1
    59    32    16    1
    60    32     4    1
    61    30    24    1
    62    30    65    1
    63    42    44   ar
    64    42    80    1
    65    44    82    1
    66    24    58    1
    67    24    37    2
    68    16    37    1
    69    16    21    1
    70     4    46    1
    71    37    74    1
    72    55    21    1
    73    21     7    1
    74    21     6    1
    75    62    28    1
    76    28     7   ar
    77    28    29   ar
    78     7    31   ar
    79     6    63    1
    80    64    29    1
    81    29    41   ar
    82    31    67    1
    83    31    38   ar
    84    41    38   ar
    85    41    79    1
    86    38    75    1
