@<TRIPOS>MOLECULE
?
 47 49 0 0 0
SMALL
GASTEIGER

@<TRIPOS>ATOM
      1 O           4.9629   -0.0150    4.1100 O.2     1  LIG1       -0.2965
      2 C           4.0899    0.7195    3.6975 C.2     1  LIG1        0.1434
      3 C           3.7986    0.9756    2.2223 C.3     1  LIG1        0.0372
      4 C           2.8276    2.1967    2.2888 C.3     1  LIG1        0.0039
      5 H           3.3994    3.0084    2.4086 H       1  LIG1        0.0364
      6 C           2.0576    2.0034    3.6139 C.3     1  LIG1        0.0011
      7 H           1.3952    1.2656    3.4821 H       1  LIG1        0.0362
      8 C           3.1454    1.5012    4.5783 C.3     1  LIG1        0.0226
      9 H           3.6426    2.3021    4.9118 H       1  LIG1        0.0381
     10 C           2.6469    0.7363    5.7924 C.3     1  LIG1       -0.0551
     11 H           3.4088    0.4815    6.3539 H       1  LIG1        0.0237
     12 H           2.1734   -0.0700    5.4988 H       1  LIG1        0.0237
     13 H           2.0364    1.3036    6.3074 H       1  LIG1        0.0237
     14 C           3.0908   -0.2835    1.6461 C.3     1  LIG1       -0.0223
     15 H           2.2421   -0.4184    2.1376 H       1  LIG1        0.0317
     16 H           2.8606   -0.1072    0.7001 H       1  LIG1        0.0317
     17 C           3.8847   -1.5536    1.7125 C.2     1  LIG1       -0.0902
     18 H           4.0217   -1.9338    2.5728 H       1  LIG1        0.0567
     19 C           4.3933   -2.1707    0.7181 C.2     1  LIG1       -0.1026
     20 H           4.2826   -1.8275   -0.1611 H       1  LIG1        0.0532
     21 H           4.8827   -2.9729    0.8566 H       1  LIG1        0.0532
     22 C           5.0758    1.2700    1.4475 C.3     1  LIG1       -0.0520
     23 H           5.4976    2.0773    1.8076 H       1  LIG1        0.0239
     24 H           4.8596    1.4091    0.5019 H       1  LIG1        0.0239
     25 H           5.6930    0.5126    1.5335 H       1  LIG1        0.0239
     26 C           1.9617    2.4564    1.0730 C.ar    1  LIG1       -0.0428
     27 C           2.3899    3.3597    0.1111 C.ar    1  LIG1       -0.0583
     28 H           3.2267    3.7976    0.2200 H       1  LIG1        0.0620
     29 C           1.6113    3.6351   -1.0118 C.ar    1  LIG1       -0.0615
     30 H           1.9232    4.2541   -1.6605 H       1  LIG1        0.0618
     31 C           0.4061    3.0239   -1.1870 C.ar    1  LIG1       -0.0617
     32 H          -0.1214    3.2150   -1.9532 H       1  LIG1        0.0618
     33 C          -0.0391    2.1301   -0.2464 C.ar    1  LIG1       -0.0615
     34 H          -0.8804    1.7039   -0.3609 H       1  LIG1        0.0618
     35 C           0.7301    1.8450    0.8721 C.ar    1  LIG1       -0.0583
     36 H           0.4100    1.2206    1.5118 H       1  LIG1        0.0620
     37 C           1.3093    3.2217    4.0995 C.ar    1  LIG1       -0.0430
     38 C           1.9325    4.4507    4.2394 C.ar    1  LIG1       -0.0583
     39 H           2.8494    4.5419    4.0087 H       1  LIG1        0.0620
     40 C           1.2343    5.5438    4.7106 C.ar    1  LIG1       -0.0615
     41 H           1.6737    6.3815    4.7941 H       1  LIG1        0.0618
     42 C          -0.0986    5.4315    5.0634 C.ar    1  LIG1       -0.0617
     43 H          -0.5732    6.1844    5.3935 H       1  LIG1        0.0618
     44 C          -0.7244    4.2195    4.9296 C.ar    1  LIG1       -0.0615
     45 H          -1.6382    4.1296    5.1705 H       1  LIG1        0.0618
     46 C          -0.0311    3.1284    4.4452 C.ar    1  LIG1       -0.0583
     47 H          -0.4811    2.2978    4.3464 H       1  LIG1        0.0620
@<TRIPOS>BOND
     1    32    31    1
     2    30    29    1
     3    31    29   ar
     4    31    33   ar
     5    29    27   ar
     6    34    33    1
     7    33    35   ar
     8    20    19    1
     9    27    28    1
    10    27    26   ar
    11    24    22    1
    12    16    14    1
    13    19    21    1
    14    19    17    2
    15    35    26   ar
    16    35    36    1
    17    26     4    1
    18    22    25    1
    19    22    23    1
    20    22     3    1
    21    14    17    1
    22    14    15    1
    23    14     3    1
    24    17    18    1
    25     3     4    1
    26     3     2    1
    27     4     5    1
    28     4     6    1
    29     7     6    1
    30     6    37    1
    31     6     8    1
    32     2     1    2
    33     2     8    1
    34    39    38    1
    35    37    38   ar
    36    37    46   ar
    37    38    40   ar
    38    47    46    1
    39    46    44   ar
    40     8     9    1
    41     8    10    1
    42    40    41    1
    43    40    42   ar
    44    44    42   ar
    45    44    45    1
    46    42    43    1
    47    12    10    1
    48    10    13    1
    49    10    11    1
