@<TRIPOS>MOLECULE
4122031.cif
 98 102 0 0 0
SMALL
GASTEIGER

@<TRIPOS>ATOM
      1 CL          0.4591    2.8797    3.2333 Cl      1  LIG1       -0.0979
      2 CL          6.8976   12.6815   13.4342 Cl      2  LIG2       -0.0979
      3 CL          1.8445    8.3533    1.3220 Cl      3  LIG3       -0.0979
      4 CL          3.0739   10.2531    9.9641 Cl      4  LIG4       -0.0979
      5 CL          2.0030    2.0037    6.2761 Cl      5  LIG5       -0.0979
      6 O          -1.6228    2.4731    0.9780 O.3     1  LIG1       -0.3717
      7 O           1.8393    1.9906    0.0836 O.3     1  LIG1       -0.4548
      8 O           0.3152    0.5138    0.7281 O.2     1  LIG1       -0.2471
      9 O           5.0997   12.9446   11.0788 O.3     2  LIG2       -0.3717
     10 O           5.6435   16.0732   12.7930 O.3     2  LIG2       -0.4548
     11 O           6.6055   15.2534   10.9654 O.2     2  LIG2       -0.2471
     12 O           3.9734    7.9264    3.5416 O.3     3  LIG3       -0.3717
     13 O           0.5394    7.5250    4.5727 O.3     3  LIG3       -0.4548
     14 O           1.9826    6.0006    3.8453 O.2     3  LIG3       -0.2471
     15 O           5.8183   10.1017   11.3440 O.3     4  LIG4       -0.3717
     16 O           5.7972    9.0354    7.9106 O.3     4  LIG4       -0.4548
     17 O           6.3528   10.9873    8.7796 O.2     4  LIG4       -0.2471
     18 O           3.8493    2.5643    8.6413 O.3     5  LIG5       -0.3717
     19 O           3.4383    5.4621    6.5533 O.3     5  LIG5       -0.4548
     20 O           2.3987    4.8991    8.4290 O.2     5  LIG5       -0.2471
     21 O           1.4915   13.1301    9.6661 O.3     6  HOH6       -0.4105
     22 N          -1.2238    5.7796    2.0568 N.1     1  LIG1       -0.1946
     23 N           3.6007   11.3883   13.9952 N.1     2  LIG2       -0.1946
     24 N           3.6025   11.2390    2.4530 N.1     3  LIG3       -0.1946
     25 N           3.4053    7.6104   12.2890 N.1     4  LIG4       -0.1946
     26 N           5.2669    0.6378    5.7559 N.1     5  LIG5       -0.1946
     27 C           0.3613    3.7771    1.6689 C.3     1  LIG1        0.1766
     28 C          -0.3406    2.8359    0.6056 C.3     1  LIG1        0.2131
     29 C          -0.2989    3.5623   -0.7073 C.2     1  LIG1       -0.0398
     30 C           0.9132    3.8760   -1.1142 C.2     1  LIG1       -0.0445
     31 C           1.9860    3.4342   -0.1685 C.3     1  LIG1        0.1241
     32 C           1.7742    4.1292    1.1673 C.3     1  LIG1        0.0239
     33 C          -0.5248    4.9243    1.8928 C.1     1  LIG1        0.0892
     34 C           0.6193    1.6458    0.4797 C.2     1  LIG1        0.3466
     35 C           5.2340   13.3474   13.4578 C.3     2  LIG2        0.1766
     36 C           4.8843   13.9345   12.0454 C.3     2  LIG2        0.2131
     37 C           3.4868   14.4699   12.1448 C.2     2  LIG2       -0.0398
     38 C           3.3351   15.4215   13.0510 C.2     2  LIG2       -0.0445
     39 C           4.6162   15.7379   13.7812 C.3     2  LIG2        0.1241
     40 C           5.1114   14.4900   14.4991 C.3     2  LIG2        0.0239
     41 C           5.8041   15.1324   11.8580 C.2     2  LIG2        0.3466
     42 C           4.3176   12.2407   13.7447 C.1     2  LIG2        0.0892
     43 C           1.9904    9.2418    2.8734 C.3     3  LIG3        0.1766
     44 C           2.7061    8.3105    3.9193 C.3     3  LIG3        0.2131
     45 C           2.7339    9.0821    5.2201 C.2     3  LIG3       -0.0398
     46 C           1.5349    9.4192    5.6679 C.2     3  LIG3       -0.0445
     47 C           0.4365    8.9712    4.7784 C.3     3  LIG3        0.1241
     48 C           0.5959    9.6285    3.4138 C.3     3  LIG3        0.0239
     49 C           1.7271    7.1420    4.0999 C.2     3  LIG3        0.3466
     50 C           2.8777   10.3961    2.6230 C.1     3  LIG3        0.0892
     51 C           4.1051    8.7886   10.1382 C.3     4  LIG4        0.1766
     52 C           5.6125    9.2533   10.2930 C.3     4  LIG4        0.2131
     53 C           6.4156    8.0022   10.4053 C.2     4  LIG4       -0.0398
     54 C           6.2821    7.1808    9.3564 C.2     4  LIG4       -0.0445
     55 C           5.3698    7.7044    8.3243 C.3     4  LIG4        0.1241
     56 C           3.9551    7.8643    8.9117 C.3     4  LIG4        0.0239
     57 C           5.9654    9.8774    8.9496 C.2     4  LIG4        0.3466
     58 C           3.7078    8.1007   11.3920 C.1     4  LIG4        0.0892
     59 C           3.6764    2.6432    6.1776 C.3     5  LIG5        0.1766
     60 C           4.0333    3.3580    7.5328 C.3     5  LIG5        0.2131
     61 C           5.4800    3.7965    7.3862 C.2     5  LIG5       -0.0398
     62 C           5.6778    4.5990    6.3570 C.2     5  LIG5       -0.0445
     63 C           4.4301    4.9301    5.6011 C.3     5  LIG5        0.1241
     64 C           3.8041    3.6769    5.0258 C.3     5  LIG5        0.0239
     65 C           3.1933    4.6361    7.5683 C.2     5  LIG5        0.3466
     66 C           4.5698    1.5077    5.9654 C.1     5  LIG5        0.0892
     67 H          -1.0801    3.7789   -1.2022 H       1  LIG1        0.0605
     68 H           1.0883    4.3333   -1.9293 H       1  LIG1        0.0606
     69 H           2.8470    3.6294   -0.5191 H       1  LIG1        0.0780
     70 H           1.8523    5.0696    1.0580 H       1  LIG1        0.0332
     71 H           2.4231    3.8285    1.7927 H       1  LIG1        0.0332
     72 H           2.7729   14.1560   11.6030 H       2  LIG2        0.0605
     73 H           2.5078   15.8559   13.2256 H       2  LIG2        0.0606
     74 H           4.4875   16.4522   14.3929 H       2  LIG2        0.0780
     75 H           5.9605   14.6607   14.8892 H       2  LIG2        0.0332
     76 H           4.4942   14.2426   15.1776 H       2  LIG2        0.0332
     77 H           3.5381    9.3043    5.6740 H       3  LIG3        0.0605
     78 H           1.3914    9.9002    6.4754 H       3  LIG3        0.0606
     79 H          -0.4067    9.1914    5.1564 H       3  LIG3        0.0780
     80 H           0.5332   10.5713    3.5018 H       3  LIG3        0.0332
     81 H          -0.0805    9.3192    2.8218 H       3  LIG3        0.0332
     82 H           6.9708    7.8041   11.1506 H       4  LIG4        0.0605
     83 H           6.7269    6.3444    9.2851 H       4  LIG4        0.0606
     84 H           5.3532    7.1185    7.5774 H       4  LIG4        0.0780
     85 H           3.3772    8.2572    8.2681 H       4  LIG4        0.0332
     86 H           3.6071    7.0211    9.1758 H       4  LIG4        0.0332
     87 H           6.1737    3.5194    7.9721 H       5  LIG5        0.0605
     88 H           6.5335    4.9374    6.1202 H       5  LIG5        0.0606
     89 H           4.6111    5.5621    4.9150 H       5  LIG5        0.0780
     90 H           4.3540    3.3260    4.3352 H       5  LIG5        0.0332
     91 H           2.9438    3.8760    4.6737 H       5  LIG5        0.0332
     92 H          -1.5571    1.7833    1.4268 H       1  LIG1        0.2114
     93 H           4.7667   13.2322   10.3522 H       2  LIG2        0.2114
     94 H           3.8861    7.4435    2.9599 H       3  LIG3        0.2114
     95 H           5.9987   11.0480   11.1567 H       4  LIG4        0.2114
     96 H           3.1613    2.6634    8.9253 H       5  LIG5        0.2114
     97 H           0.9370   13.4985   10.1093 H       0  HOH0        0.2052
     98 H           1.0729   12.5374    9.2896 H       0  HOH0        0.2052
@<TRIPOS>BOND
     1    68    30    1
     2    67    29    1
     3    30    29    2
     4    30    31    1
     5    29    28    1
     6    69    31    1
     7    31     7    1
     8    31    32    1
     9     7    34    1
    10    34    28    1
    11    34     8    2
    12    28     6    1
    13    28    27    1
    14     6    92    1
    15    70    32    1
    16    32    27    1
    17    32    71    1
    18     3    43    1
    19    27    33    1
    20    27     1    1
    21    33    22    3
    22    24    50    3
    23    50    43    1
    24    81    48    1
    25    43    48    1
    26    43    44    1
    27    94    12    1
    28    48    80    1
    29    48    47    1
    30    12    44    1
    31    14    49    2
    32    44    49    1
    33    44    45    1
    34    49    13    1
    35    90    64    1
    36    13    47    1
    37    91    64    1
    38    47    79    1
    39    47    46    1
    40    89    63    1
    41    64    63    1
    42    64    59    1
    43    45    46    2
    44    45    77    1
    45    63    62    1
    46    63    19    1
    47    46    78    1
    48    26    66    3
    49    66    59    1
    50    88    62    1
    51    59     5    1
    52    59    60    1
    53    62    61    2
    54    19    65    1
    55    61    60    1
    56    61    87    1
    57    60    65    1
    58    60    18    1
    59    65    20    2
    60    84    55    1
    61    16    55    1
    62    16    57    1
    63    85    56    1
    64    55    56    1
    65    55    54    1
    66    18    96    1
    67    17    57    2
    68    56    86    1
    69    56    51    1
    70    57    52    1
    71    83    54    1
    72    98    21    1
    73    54    53    2
    74    21    97    1
    75     4    51    1
    76    51    52    1
    77    51    58    1
    78    52    53    1
    79    52    15    1
    80    93     9    1
    81    53    82    1
    82    11    41    2
    83     9    36    1
    84    95    15    1
    85    58    25    3
    86    72    37    1
    87    41    36    1
    88    41    10    1
    89    36    37    1
    90    36    35    1
    91    37    38    2
    92    10    39    1
    93    38    73    1
    94    38    39    1
    95     2    35    1
    96    35    42    1
    97    35    40    1
    98    42    23    3
    99    39    74    1
   100    39    40    1
   101    40    75    1
   102    40    76    1
