@<TRIPOS>MOLECULE
?
 47 51 0 0 0
SMALL
GASTEIGER

@<TRIPOS>ATOM
      1 C           1.6478    3.0343    6.3596 C.ar    1  LIG1        0.0585
      2 C           1.7093    2.5694    7.6649 C.ar    1  LIG1       -0.0385
      3 H           1.1126    2.9000    8.3272 H       1  LIG1        0.0637
      4 C           2.6574    1.6155    7.9815 C.ar    1  LIG1       -0.0599
      5 H           2.7115    1.2850    8.8700 H       1  LIG1        0.0618
      6 C           3.5257    1.1386    7.0245 C.ar    1  LIG1       -0.0599
      7 H           4.1690    0.4824    7.2637 H       1  LIG1        0.0618
      8 C           3.4768    1.6033    5.7053 C.ar    1  LIG1       -0.0381
      9 H           4.0817    1.2759    5.0504 H       1  LIG1        0.0637
     10 C           2.5239    2.5507    5.3822 C.ar    1  LIG1        0.0635
     11 C          -0.1999    4.6109    6.7316 C.3     1  LIG1        0.0091
     12 H          -0.7522    3.9222    7.1572 H       1  LIG1        0.0432
     13 H          -0.7726    5.2145    6.2137 H       1  LIG1        0.0432
     14 H           0.2729    5.1219    7.4210 H       1  LIG1        0.0432
     15 C           2.4922    2.7103    2.8784 C.ar    1  LIG1        0.0635
     16 C           3.4499    1.8231    2.4224 C.ar    1  LIG1       -0.0381
     17 H           4.0821    1.4387    3.0181 H       1  LIG1        0.0637
     18 C           3.4640    1.5077    1.0650 C.ar    1  LIG1       -0.0599
     19 H           4.1059    0.8883    0.7389 H       1  LIG1        0.0618
     20 C           2.5678    2.0742    0.1848 C.ar    1  LIG1       -0.0599
     21 H           2.6036    1.8451   -0.7372 H       1  LIG1        0.0618
     22 C           1.6105    2.9791    0.6351 C.ar    1  LIG1       -0.0385
     23 H           0.9937    3.3748    0.0304 H       1  LIG1        0.0637
     24 C           1.5781    3.2879    1.9832 C.ar    1  LIG1        0.0585
     25 C          -0.2667    4.9063    1.8594 C.3     1  LIG1        0.0091
     26 H           0.2057    5.5648    1.3087 H       1  LIG1        0.0432
     27 H          -0.8798    5.3691    2.4669 H       1  LIG1        0.0432
     28 H          -0.7755    4.3005    1.2816 H       1  LIG1        0.0432
     29 C           2.3707    6.6906    5.0132 C.2     1  LIG1        0.3442
     30 C           3.3206    7.7129    4.5119 C.ar    1  LIG1        0.0593
     31 C           4.0514    8.4345    5.4466 C.ar    1  LIG1       -0.0478
     32 H           3.9215    8.2842    6.3760 H       1  LIG1        0.0626
     33 C           4.9696    9.3729    5.0154 C.ar    1  LIG1       -0.0610
     34 H           5.4829    9.8611    5.6490 H       1  LIG1        0.0618
     35 C           5.1380    9.5978    3.6804 C.ar    1  LIG1       -0.0617
     36 H           5.7766   10.2386    3.3901 H       1  LIG1        0.0618
     37 C           4.3895    8.9050    2.7444 C.ar    1  LIG1       -0.0610
     38 H           4.4969    9.0884    1.8176 H       1  LIG1        0.0618
     39 C           3.4853    7.9448    3.1618 C.ar    1  LIG1       -0.0478
     40 H           2.9827    7.4506    2.5261 H       1  LIG1        0.0626
     41 N           0.7684    3.9793    5.8455 N.pl3   1  LIG1       -0.2655
     42 N           2.2390    3.1723    4.1648 N.pl3   1  LIG1       -0.2299
     43 N           0.6985    4.1408    2.6336 N.pl3   1  LIG1       -0.2655
     44 O           2.1661    5.7113    4.1224 O.3     1  LIG1       -0.4085
     45 O           1.8692    6.7181    6.0945 O.2     1  LIG1       -0.2447
     46 P           1.0367    4.4603    4.2588 P.3     1  LIG1        0.2008
     47 H           0.0020    5.2590    4.3234 H       1  LIG1        0.1477
@<TRIPOS>BOND
     1    21    20    1
     2    23    22    1
     3    20    22   ar
     4    20    18   ar
     5    22    24   ar
     6    19    18    1
     7    18    16   ar
     8    28    25    1
     9    26    25    1
    10    38    37    1
    11    25    27    1
    12    25    43    1
    13    24    43    1
    14    24    15   ar
    15    16    15   ar
    16    16    17    1
    17    40    39    1
    18    43    46    1
    19    37    39   ar
    20    37    35   ar
    21    15    42    1
    22    39    30   ar
    23    36    35    1
    24    35    33   ar
    25    44    46    1
    26    44    29    1
    27    42    46    1
    28    42    10    1
    29    46    47    1
    30    46    41    1
    31    30    29    1
    32    30    31   ar
    33    29    45    2
    34    33    31   ar
    35    33    34    1
    36     9     8    1
    37    10     8   ar
    38    10     1   ar
    39    31    32    1
    40     8     6   ar
    41    41     1    1
    42    41    11    1
    43    13    11    1
    44     1     2   ar
    45    11    12    1
    46    11    14    1
    47     6     7    1
    48     6     4   ar
    49     2     4   ar
    50     2     3    1
    51     4     5    1
