@<TRIPOS>MOLECULE
?
 58 60 0 0 0
SMALL
GASTEIGER

@<TRIPOS>ATOM
      1 C           8.7894    4.1181    4.5398 C.2     1  LIG1        0.0248
      2 C          10.0321    4.7107    5.0921 C.ar    1  LIG1       -0.0072
      3 C          11.3056    4.2645    4.7214 C.ar    1  LIG1       -0.0534
      4 H          11.3870    3.5386    4.1139 H       1  LIG1        0.0624
      5 C          12.4493    4.8633    5.2248 C.ar    1  LIG1       -0.0611
      6 H          13.3042    4.5639    4.9388 H       1  LIG1        0.0618
      7 C          12.3508    5.8976    6.1438 C.ar    1  LIG1       -0.0612
      8 H          13.1352    6.3054    6.4913 H       1  LIG1        0.0618
      9 C          11.1011    6.3303    6.5503 C.ar    1  LIG1       -0.0536
     10 H          11.0357    7.0204    7.2008 H       1  LIG1        0.0624
     11 C           9.9325    5.7716    6.0218 C.ar    1  LIG1       -0.0109
     12 C           8.5889    6.2049    6.4694 C.2     1  LIG1       -0.0002
     13 C           7.6619    5.0149    6.6902 C.3     1  LIG1        0.1788
     14 C           7.5418    4.3470    5.3139 C.2     1  LIG1        0.2038
     15 C           8.6413    3.4380    3.3854 C.2     1  LIG1       -0.0728
     16 H           7.7682    3.0959    3.2326 H       1  LIG1        0.0579
     17 C           9.6294    3.1375    2.3090 C.3     1  LIG1       -0.0340
     18 H          10.1650    2.3474    2.5704 H       1  LIG1        0.0308
     19 H          10.2469    3.9052    2.2107 H       1  LIG1        0.0308
     20 C           8.9506    2.8621    0.9642 C.3     1  LIG1       -0.0524
     21 H           8.2819    3.5716    0.7928 H       1  LIG1        0.0266
     22 H           9.6310    2.9106    0.2472 H       1  LIG1        0.0266
     23 C           8.2658    1.5203    0.8962 C.3     1  LIG1       -0.0650
     24 H           8.9092    0.8129    1.1124 H       1  LIG1        0.0230
     25 H           7.9153    1.3770   -0.0080 H       1  LIG1        0.0230
     26 H           7.5272    1.4975    1.5404 H       1  LIG1        0.0230
     27 C           8.1542    7.4601    6.5904 C.2     1  LIG1       -0.0768
     28 H           7.2739    7.5591    6.9345 H       1  LIG1        0.0576
     29 C           8.8694    8.7371    6.2554 C.3     1  LIG1       -0.0343
     30 H           8.4566    9.1372    5.4493 H       1  LIG1        0.0307
     31 H           9.8144    8.5324    6.0422 H       1  LIG1        0.0307
     32 C           8.8232    9.7549    7.4003 C.3     1  LIG1       -0.0524
     33 H           9.2265   10.6057    7.0922 H       1  LIG1        0.0266
     34 H           7.8780    9.9349    7.6328 H       1  LIG1        0.0266
     35 C           9.5548    9.2836    8.6401 C.3     1  LIG1       -0.0650
     36 H           9.1586    8.4436    8.9542 H       1  LIG1        0.0230
     37 H           9.4793    9.9635    9.3421 H       1  LIG1        0.0230
     38 H          10.5004    9.1386    8.4257 H       1  LIG1        0.0230
     39 C           8.2137    4.0161    7.7183 C.ar    1  LIG1       -0.0040
     40 C           8.0012    2.6492    7.5739 C.ar    1  LIG1       -0.0543
     41 H           7.5298    2.3209    6.8169 H       1  LIG1        0.0622
     42 C           8.4746    1.7636    8.5301 C.ar    1  LIG1       -0.0474
     43 H           8.3362    0.8297    8.4176 H       1  LIG1        0.0626
     44 C           9.1490    2.2314    9.6513 C.ar    1  LIG1        0.0590
     45 C           9.3297    3.6025    9.8201 C.ar    1  LIG1       -0.0474
     46 H           9.7677    3.9344   10.5951 H       1  LIG1        0.0626
     47 C           8.8677    4.4815    8.8524 C.ar    1  LIG1       -0.0543
     48 H           9.0003    5.4146    8.9663 H       1  LIG1        0.0622
     49 C           9.6860    1.2294   10.6128 C.2     1  LIG1        0.3389
     50 C          10.8926    0.8642   12.5956 C.3     1  LIG1        0.0820
     51 H          10.1919    0.2895   12.9686 H       1  LIG1        0.0661
     52 H          11.3272    1.3609   13.3193 H       1  LIG1        0.0661
     53 H          11.5572    0.3122   12.1336 H       1  LIG1        0.0661
     54 O           6.3689    5.4292    7.1044 O.3     1  LIG1       -0.3721
     55 O           6.4235    4.0748    4.9015 O.2     1  LIG1       -0.2882
     56 O           9.5961    0.0403   10.4680 O.2     1  LIG1       -0.2450
     57 O          10.3037    1.7937   11.6598 O.3     1  LIG1       -0.4645
     58 H           5.8360    5.0197    6.5416 H       1  LIG1        0.2116
@<TRIPOS>BOND
     1    25    23    1
     2    22    20    1
     3    21    20    1
     4    23    20    1
     5    23    24    1
     6    23    26    1
     7    20    17    1
     8    19    17    1
     9    17    18    1
    10    17    15    1
    11    16    15    1
    12    15     1    2
    13     4     3    1
    14     1     2    1
    15     1    14    1
    16     3     2   ar
    17     3     5   ar
    18    55    14    2
    19     6     5    1
    20     2    11   ar
    21     5     7   ar
    22    14    13    1
    23    30    29    1
    24    11    12    1
    25    11     9   ar
    26    31    29    1
    27     7     8    1
    28     7     9   ar
    29    29    27    1
    30    29    32    1
    31    12    27    2
    32    12    13    1
    33    58    54    1
    34     9    10    1
    35    27    28    1
    36    13    54    1
    37    13    39    1
    38    41    40    1
    39    33    32    1
    40    32    34    1
    41    32    35    1
    42    40    39   ar
    43    40    42   ar
    44    39    47   ar
    45    43    42    1
    46    38    35    1
    47    42    44   ar
    48    35    36    1
    49    35    37    1
    50    47    48    1
    51    47    45   ar
    52    44    45   ar
    53    44    49    1
    54    45    46    1
    55    56    49    2
    56    49    57    1
    57    57    50    1
    58    53    50    1
    59    50    51    1
    60    50    52    1
