@<TRIPOS>MOLECULE
(4aS*,7R*,8aS*)-ethyl 4a-hydroxy-7-methoxycarboxy-4a,7,8,8a-tetrahydro- 4H-benzo[e][1,2]oxazine-3-carboxylate
 38 39 0 0 0
SMALL
GASTEIGER

@<TRIPOS>ATOM
      1 O           1.5588    0.5767    0.1898 O.3     1  LIG1       -0.4262
      2 O           4.4220    2.0341    3.8199 O.2     1  LIG1       -0.3867
      3 N           5.5912    2.7682    3.5235 N.2     1  LIG1       -0.0819
      4 O          -0.1255    0.3905   -1.1221 O.3     1  LIG1       -0.4371
      5 O           5.9332   -0.4682    3.3688 O.3     1  LIG1       -0.3804
      6 H           5.5214   -1.1130    3.6632 H       1  LIG1        0.2108
      7 O           7.5380    4.3389    2.9166 O.3     1  LIG1       -0.4605
      8 C           6.3158    2.3556    2.5379 C.2     1  LIG1        0.1666
      9 C           3.9828    0.9422    2.9750 C.3     1  LIG1        0.1643
     10 C           2.9878    1.3903    1.9243 C.3     1  LIG1        0.0309
     11 C           2.3392    0.1554    1.3482 C.3     1  LIG1        0.1283
     12 C           5.1467    0.1785    2.3533 C.3     1  LIG1        0.1292
     13 C           0.4940   -0.1813   -0.0745 C.2     1  LIG1        0.5105
     14 C           6.0878    1.1783    1.6733 C.3     1  LIG1        0.0359
     15 H           6.9362    0.7465    1.4847 H       1  LIG1        0.0364
     16 H           5.7016    1.4652    0.8301 H       1  LIG1        0.0364
     17 O           0.1449   -1.1591    0.5210 O.2     1  LIG1       -0.2028
     18 C           4.6173   -0.8415    1.3698 C.2     1  LIG1       -0.0494
     19 C           3.3669   -0.8559    0.9170 C.2     1  LIG1       -0.0449
     20 O           8.4429    2.7787    1.5788 O.2     1  LIG1       -0.2435
     21 C           7.5512    3.1855    2.2819 C.2     1  LIG1        0.3568
     22 C           8.7469    5.1784    2.7331 C.3     1  LIG1        0.0900
     23 C          -1.2831   -0.2984   -1.5683 C.3     1  LIG1        0.0851
     24 H          -1.6649    0.1670   -2.3147 H       1  LIG1        0.0662
     25 H          -1.9247   -0.3406   -0.8547 H       1  LIG1        0.0662
     26 H          -1.0428   -1.1888   -1.8341 H       1  LIG1        0.0662
     27 C           8.4526    6.5006    3.2859 C.3     1  LIG1       -0.0306
     28 H           9.2214    7.0667    3.1875 H       1  LIG1        0.0262
     29 H           8.2343    6.4162    4.2177 H       1  LIG1        0.0262
     30 H           7.7085    6.8854    2.8167 H       1  LIG1        0.0262
     31 H           3.4464    1.7463    1.1976 H       1  LIG1        0.0342
     32 H           8.9342    5.4308    1.8210 H       1  LIG1        0.0695
     33 H           3.0311   -1.4584    0.3445 H       1  LIG1        0.0606
     34 H           9.4202    4.5288    3.3794 H       1  LIG1        0.0695
     35 H           2.2446    1.9958    2.3787 H       1  LIG1        0.0342
     36 H           3.5613    0.4893    3.6255 H       1  LIG1        0.0794
     37 H           5.2315   -1.3913    1.1812 H       1  LIG1        0.0600
     38 H           1.7144   -0.2974    2.0342 H       1  LIG1        0.0782
@<TRIPOS>BOND
     1    24    23    1
     2    26    23    1
     3    23     4    1
     4    23    25    1
     5     4    13    1
     6    13     1    1
     7    13    17    2
     8     1    11    1
     9    33    19    1
    10    16    14    1
    11    19    11    1
    12    19    18    2
    13    37    18    1
    14    31    10    1
    15    11    10    1
    16    11    38    1
    17    18    12    1
    18    15    14    1
    19    20    21    2
    20    14    12    1
    21    14     8    1
    22    32    22    1
    23    10    35    1
    24    10     9    1
    25    21     8    1
    26    21     7    1
    27    12     9    1
    28    12     5    1
    29     8     3    2
    30    22     7    1
    31    22    27    1
    32    22    34    1
    33    30    27    1
    34     9    36    1
    35     9     2    1
    36    28    27    1
    37    27    29    1
    38     5     6    1
    39     3     2    1
