@<TRIPOS>MOLECULE
?
 47 50 0 0 0
SMALL
GASTEIGER

@<TRIPOS>ATOM
      1 C          -1.2285    3.0077    6.9504 C.ar    1  LIG1        0.0576
      2 C          -1.6226    1.6955    7.1509 C.ar    1  LIG1       -0.0385
      3 H          -1.1520    1.1387    7.7601 H       1  LIG1        0.0637
      4 C          -2.7117    1.2070    6.4508 C.ar    1  LIG1       -0.0599
      5 H          -2.9781    0.3027    6.5679 H       1  LIG1        0.0618
      6 C          -3.4140    2.0180    5.5870 C.ar    1  LIG1       -0.0599
      7 H          -4.1593    1.6649    5.1149 H       1  LIG1        0.0618
      8 C          -3.0472    3.3521    5.3935 C.ar    1  LIG1       -0.0381
      9 H          -3.5504    3.9135    4.8161 H       1  LIG1        0.0637
     10 C          -1.9400    3.8369    6.0571 C.ar    1  LIG1        0.0626
     11 C          -1.2657    5.9818    4.9553 C.ar    1  LIG1        0.0626
     12 C          -2.1148    6.1604    3.8728 C.ar    1  LIG1       -0.0381
     13 H          -2.8912    5.6234    3.7725 H       1  LIG1        0.0637
     14 C          -1.8048    7.1463    2.9333 C.ar    1  LIG1       -0.0599
     15 H          -2.3780    7.2775    2.1867 H       1  LIG1        0.0618
     16 C          -0.6824    7.9292    3.0710 C.ar    1  LIG1       -0.0599
     17 H          -0.4973    8.6000    2.4254 H       1  LIG1        0.0618
     18 C           0.1863    7.7512    4.1457 C.ar    1  LIG1       -0.0385
     19 H           0.9685    8.2829    4.2326 H       1  LIG1        0.0637
     20 C          -0.1189    6.7804    5.0853 C.ar    1  LIG1        0.0576
     21 C          -1.0299    6.5306    9.6294 C.3     1  LIG1        0.0689
     22 C          -2.4363    6.8877   10.0721 C.3     1  LIG1       -0.0359
     23 H          -2.7901    7.5964    9.4945 H       1  LIG1        0.0257
     24 H          -2.4168    7.2018   10.9998 H       1  LIG1        0.0257
     25 H          -3.0103    6.0955   10.0068 H       1  LIG1        0.0257
     26 C          -0.4901    5.4140   10.5091 C.3     1  LIG1       -0.0359
     27 H          -1.0128    4.5982   10.3594 H       1  LIG1        0.0257
     28 H          -0.5589    5.6775   11.4504 H       1  LIG1        0.0257
     29 H           0.4485    5.2450   10.2851 H       1  LIG1        0.0257
     30 C          -0.1390    7.7580    9.6462 C.3     1  LIG1       -0.0359
     31 H           0.7682    7.5063    9.3712 H       1  LIG1        0.0257
     32 H          -0.1147    8.1315   10.5523 H       1  LIG1        0.0257
     33 H          -0.4944    8.4288    9.0250 H       1  LIG1        0.0257
     34 C           1.8101    7.1964    6.5633 C.3     1  LIG1        0.0082
     35 H           2.3715    7.2901    5.7663 H       1  LIG1        0.0432
     36 H           2.3090    6.7207    7.2604 H       1  LIG1        0.0432
     37 H           1.5571    8.0847    6.8920 H       1  LIG1        0.0432
     38 C           0.7367    2.9605    8.4279 C.3     1  LIG1        0.0082
     39 H           0.2546    2.7045    9.2416 H       1  LIG1        0.0432
     40 H           1.4896    3.5423    8.6629 H       1  LIG1        0.0432
     41 H           1.0720    2.1550    7.9814 H       1  LIG1        0.0432
     42 H           0.9024    5.4432    8.1048 H       1  LIG1        0.1344
     43 N          -0.1649    3.6719    7.5332 N.pl3   1  LIG1       -0.2742
     44 N          -1.3389    5.0888    6.0174 N.pl3   1  LIG1       -0.2386
     45 N           0.6103    6.4438    6.2261 N.pl3   1  LIG1       -0.2742
     46 O          -1.2171    6.0802    8.2469 O.3     1  LIG1       -0.3201
     47 P          -0.1342    5.3552    7.2965 P.3     1  LIG1        0.1546
@<TRIPOS>BOND
     1    15    14    1
     2    17    16    1
     3    14    16   ar
     4    14    12   ar
     5    16    18   ar
     6    13    12    1
     7    12    11   ar
     8    18    19    1
     9    18    20   ar
    10     9     8    1
    11    11    20   ar
    12    11    44    1
    13    20    45    1
    14     7     6    1
    15     8     6   ar
    16     8    10   ar
    17     6     4   ar
    18    35    34    1
    19    44    10    1
    20    44    47    1
    21    10     1   ar
    22    45    34    1
    23    45    47    1
    24     4     5    1
    25     4     2   ar
    26    34    37    1
    27    34    36    1
    28     1     2   ar
    29     1    43    1
    30     2     3    1
    31    47    43    1
    32    47    42    1
    33    47    46    1
    34    43    38    1
    35    41    38    1
    36    46    21    1
    37    38    40    1
    38    38    39    1
    39    33    30    1
    40    31    30    1
    41    23    22    1
    42    21    30    1
    43    21    22    1
    44    21    26    1
    45    30    32    1
    46    25    22    1
    47    22    24    1
    48    29    26    1
    49    27    26    1
    50    26    28    1
