@<TRIPOS>MOLECULE
C15 H14 N2 O2
 33 36 0 0 0
SMALL
GASTEIGER

@<TRIPOS>ATOM
      1 O           3.6027    2.5637    5.5855 O.2     1  LIG1       -0.2744
      2 O           8.0396    1.5197    5.5305 O.2     1  LIG1       -0.2744
      3 N           5.8432    2.1391    5.2840 N.am    1  LIG1       -0.1930
      4 N           5.4794    1.9991    2.9921 N.ar    1  LIG1       -0.2392
      5 C           5.7243    1.3643    9.4703 C.3     1  LIG1       -0.0390
      6 H           5.4546    0.4155    9.5551 H       1  LIG1        0.0277
      7 H           5.8511    1.7660   10.3665 H       1  LIG1        0.0277
      8 C           4.7701    2.1813    8.5763 C.3     1  LIG1       -0.0105
      9 H           3.8471    2.3263    8.9331 H       1  LIG1        0.0351
     10 C           4.8792    1.3258    7.2653 C.3     1  LIG1        0.0544
     11 H           4.2975    0.5144    7.3207 H       1  LIG1        0.0408
     12 C           4.6292    2.0775    5.9834 C.2     1  LIG1        0.2317
     13 C           6.9078    1.5330    5.9540 C.2     1  LIG1        0.2317
     14 C           6.3699    0.9304    7.2279 C.3     1  LIG1        0.0544
     15 H           6.4783   -0.0635    7.2289 H       1  LIG1        0.0408
     16 C           6.9434    1.5613    8.5471 C.3     1  LIG1       -0.0105
     17 H           7.8120    1.1902    8.8746 H       1  LIG1        0.0351
     18 C           6.8866    3.0609    8.3496 C.2     1  LIG1       -0.0838
     19 H           7.6322    3.6383    8.2365 H       1  LIG1        0.0572
     20 C           5.6076    3.4269    8.3613 C.2     1  LIG1       -0.0838
     21 H           5.2775    4.3110    8.2537 H       1  LIG1        0.0572
     22 C           5.9613    2.7425    3.9856 C.ar    1  LIG1        0.1369
     23 C           6.5336    4.0030    3.8489 C.ar    1  LIG1       -0.0097
     24 C           6.5760    4.5121    2.5528 C.ar    1  LIG1       -0.0541
     25 H           6.9568    5.3679    2.3928 H       1  LIG1        0.0622
     26 C           6.0656    3.7783    1.4970 C.ar    1  LIG1       -0.0432
     27 H           6.0809    4.1225    0.6117 H       1  LIG1        0.0633
     28 C           5.5332    2.5315    1.7647 C.ar    1  LIG1        0.0297
     29 H           5.1870    2.0253    1.0398 H       1  LIG1        0.0830
     30 C           7.0764    4.7717    5.0161 C.3     1  LIG1       -0.0364
     31 H           6.4022    4.8056    5.7267 H       1  LIG1        0.0279
     32 H           7.2983    5.6824    4.7317 H       1  LIG1        0.0279
     33 H           7.8832    4.3287    5.3525 H       1  LIG1        0.0279
@<TRIPOS>BOND
     1    27    26    1
     2    29    28    1
     3    26    28   ar
     4    26    24   ar
     5    28     4   ar
     6    25    24    1
     7    24    23   ar
     8     4    22   ar
     9    23    22   ar
    10    23    30    1
    11    22     3    1
    12    32    30    1
    13    30    33    1
    14    30    31    1
    15     3    13   am
    16     3    12   am
    17     2    13    2
    18     1    12    2
    19    13    14    1
    20    12    10    1
    21    14    15    1
    22    14    10    1
    23    14    16    1
    24    10    11    1
    25    10     8    1
    26    19    18    1
    27    21    20    1
    28    18    20    2
    29    18    16    1
    30    20     8    1
    31    16    17    1
    32    16     5    1
    33     8     9    1
    34     8     5    1
    35     5     6    1
    36     5     7    1
