@<TRIPOS>MOLECULE
C21 H30 O4
 55 59 0 0 0
SMALL
GASTEIGER

@<TRIPOS>ATOM
      1 O           7.1190    8.5823   16.5723 O.3     1  LIG1       -0.3872
      2 H           6.5246    8.8884   17.0542 H       1  LIG1        0.2102
      3 O           2.6278    5.7924   17.3506 O.2     1  LIG1       -0.2946
      4 O           4.8385    8.4244   18.0556 O.3     1  LIG1       -0.3803
      5 H           4.1468    8.9427   18.0532 H       1  LIG1        0.2108
      6 O           5.0498    4.1943   17.3052 O.3     1  LIG1       -0.3910
      7 H           5.7199    3.8853   17.7077 H       1  LIG1        0.2098
      8 C           3.3841    6.5204   19.4794 C.3     1  LIG1       -0.0031
      9 H           3.0456    7.3951   19.7622 H       1  LIG1        0.0307
     10 H           4.2881    6.3901   19.8327 H       1  LIG1        0.0307
     11 H           2.7947    5.8160   19.8209 H       1  LIG1        0.0307
     12 C           3.4196    6.4588   17.9782 C.2     1  LIG1        0.1623
     13 C           4.4788    7.2931   17.2488 C.3     1  LIG1        0.1336
     14 C           5.8149    6.5235   16.9595 C.3     1  LIG1        0.0586
     15 C           6.4681    7.4858   15.8906 C.3     1  LIG1        0.0834
     16 C           7.5664    6.8281   15.0451 C.3     1  LIG1        0.0101
     17 H           8.3109    6.5822   15.6649 H       1  LIG1        0.0374
     18 C           7.0647    5.5260   14.3972 C.3     1  LIG1       -0.0236
     19 H           6.2318    5.7487   13.8925 H       1  LIG1        0.0314
     20 C           8.0739    4.9338   13.3815 C.3     1  LIG1       -0.0192
     21 C           7.4221    3.8050   12.5406 C.3     1  LIG1       -0.0463
     22 H           8.1101    3.1636   12.2329 H       1  LIG1        0.0271
     23 H           6.7530    3.3155   13.0815 H       1  LIG1        0.0271
     24 C           6.7458    4.4822   11.3376 C.3     1  LIG1       -0.0489
     25 H           6.7407    3.8799   10.5522 H       1  LIG1        0.0268
     26 H           5.8127    4.7329   11.5536 H       1  LIG1        0.0268
     27 C           9.0801    5.5637   11.0837 C.3     1  LIG1       -0.0395
     28 H           9.6115    6.2349   10.5875 H       1  LIG1        0.0277
     29 H           9.4549    4.6472   11.0741 H       1  LIG1        0.0277
     30 C           8.3660    6.0206   12.3392 C.3     1  LIG1       -0.0025
     31 C           4.0054    7.7596   15.8659 C.3     1  LIG1       -0.0137
     32 H           3.4544    8.5781   15.9423 H       1  LIG1        0.0298
     33 H           3.4682    7.0543   15.4252 H       1  LIG1        0.0298
     34 C           5.2857    8.0429   15.0686 C.3     1  LIG1       -0.0197
     35 H           5.3944    9.0165   14.9292 H       1  LIG1        0.0294
     36 H           5.2444    7.6002   14.1840 H       1  LIG1        0.0294
     37 C           6.6914    6.3555   18.2001 C.3     1  LIG1       -0.0515
     38 H           6.2832    5.6988   18.8007 H       1  LIG1        0.0238
     39 H           6.7718    7.2160   18.6620 H       1  LIG1        0.0238
     40 H           7.5809    6.0450   17.9310 H       1  LIG1        0.0238
     41 C           5.5024    5.1370   16.3208 C.3     1  LIG1        0.0666
     42 H           4.7485    5.2734   15.6790 H       1  LIG1        0.0601
     43 C           6.6704    4.5710   15.5234 C.3     1  LIG1       -0.0222
     44 H           6.4152    3.6943   15.1407 H       1  LIG1        0.0293
     45 H           7.4439    4.4301   16.1257 H       1  LIG1        0.0293
     46 C           8.1312    7.7895   14.0298 C.2     1  LIG1       -0.0813
     47 H           8.2290    8.7029   14.2733 H       1  LIG1        0.0573
     48 C           8.4965    7.4147   12.8121 C.2     1  LIG1       -0.0806
     49 H           8.8554    8.0669   12.2212 H       1  LIG1        0.0575
     50 C           7.5809    5.7068   11.0686 C.3     1  LIG1       -0.0306
     51 H           7.1749    6.4628   10.5546 H       1  LIG1        0.0310
     52 C           9.3491    4.4419   14.0702 C.3     1  LIG1       -0.0585
     53 H          10.0081    4.1838   13.3918 H       1  LIG1        0.0235
     54 H           9.1381    3.6672   14.6330 H       1  LIG1        0.0235
     55 H           9.7166    5.1594   14.6283 H       1  LIG1        0.0235
@<TRIPOS>BOND
     1    25    24    1
     2    51    50    1
     3    28    27    1
     4    50    27    1
     5    50    24    1
     6    50    30    1
     7    29    27    1
     8    27    30    1
     9    24    26    1
    10    24    21    1
    11    49    48    1
    12    22    21    1
    13    30    48    1
    14    30    20    1
    15    21    23    1
    16    21    20    1
    17    48    46    2
    18    20    52    1
    19    20    18    1
    20    53    52    1
    21    19    18    1
    22    46    47    1
    23    46    16    1
    24    52    55    1
    25    52    54    1
    26    36    34    1
    27    18    16    1
    28    18    43    1
    29    35    34    1
    30    16    17    1
    31    16    15    1
    32    34    31    1
    33    34    15    1
    34    44    43    1
    35    33    31    1
    36    43    45    1
    37    43    41    1
    38    42    41    1
    39    31    32    1
    40    31    13    1
    41    15     1    1
    42    15    14    1
    43    41    14    1
    44    41     6    1
    45     1     2    1
    46    14    13    1
    47    14    37    1
    48    13    12    1
    49    13     4    1
    50     6     7    1
    51     3    12    2
    52    40    37    1
    53    12     8    1
    54     5     4    1
    55    37    39    1
    56    37    38    1
    57     8     9    1
    58     8    11    1
    59     8    10    1
