@<TRIPOS>MOLECULE
?
 42 43 0 0 0
SMALL
GASTEIGER

@<TRIPOS>ATOM
      1 C           2.8178    4.6815    2.0990 C.2     1  LIG1        0.0444
      2 C           3.7143    4.5585    1.1010 C.2     1  LIG1       -0.0419
      3 H           3.7568    5.3026    0.5125 H       1  LIG1        0.0631
      4 C           4.6367    3.4651    0.7727 C.ar    1  LIG1       -0.0243
      5 C           4.4129    2.1100    1.0786 C.ar    1  LIG1       -0.0546
      6 H           3.6285    1.8540    1.5507 H       1  LIG1        0.0623
      7 C           5.3385    1.1394    0.6916 C.ar    1  LIG1       -0.0612
      8 H           5.1713    0.2249    0.8845 H       1  LIG1        0.0618
      9 C           6.5035    1.5033    0.0268 C.ar    1  LIG1       -0.0617
     10 H           7.1437    0.8417   -0.2065 H       1  LIG1        0.0618
     11 C           6.7324    2.8420   -0.2976 C.ar    1  LIG1       -0.0612
     12 H           7.5257    3.0930   -0.7556 H       1  LIG1        0.0618
     13 C           5.7935    3.8062    0.0545 C.ar    1  LIG1       -0.0546
     14 H           5.9371    4.7112   -0.1962 H       1  LIG1        0.0623
     15 C           2.6374    3.7225    3.2264 C.ar    1  LIG1       -0.0129
     16 C           1.4484    2.9893    3.3787 C.ar    1  LIG1       -0.0539
     17 H           0.7577    3.0676    2.7310 H       1  LIG1        0.0624
     18 C           1.2784    2.1457    4.4800 C.ar    1  LIG1       -0.0612
     19 H           0.4803    1.6381    4.5658 H       1  LIG1        0.0618
     20 C           2.2667    2.0443    5.4494 C.ar    1  LIG1       -0.0617
     21 H           2.1338    1.4894    6.2088 H       1  LIG1        0.0618
     22 C           3.4555    2.7603    5.3056 C.ar    1  LIG1       -0.0612
     23 H           4.1392    2.6867    5.9614 H       1  LIG1        0.0618
     24 C           3.6355    3.5854    4.1967 C.ar    1  LIG1       -0.0539
     25 H           4.4515    4.0636    4.0972 H       1  LIG1        0.0624
     26 C           2.0347    5.9849    2.0915 C.2     1  LIG1        0.2450
     27 C           0.4789    7.4358    3.4276 C.3     1  LIG1        0.0265
     28 C          -0.4362    7.1477    4.6175 C.3     1  LIG1       -0.0442
     29 H          -1.1280    6.5072    4.3506 H       1  LIG1        0.0250
     30 H          -0.8599    7.9802    4.9129 H       1  LIG1        0.0250
     31 H           0.0920    6.7720    5.3522 H       1  LIG1        0.0250
     32 C          -0.3720    7.9044    2.2393 C.3     1  LIG1       -0.0442
     33 H           0.2107    8.0909    1.4731 H       1  LIG1        0.0250
     34 H          -0.8576    8.7186    2.4865 H       1  LIG1        0.0250
     35 H          -1.0125    7.2020    1.9988 H       1  LIG1        0.0250
     36 C           1.5205    8.4952    3.8138 C.3     1  LIG1       -0.0442
     37 H           1.9709    8.2251    4.6405 H       1  LIG1        0.0250
     38 H           1.0744    9.3571    3.9523 H       1  LIG1        0.0250
     39 H           2.1809    8.5807    3.0956 H       1  LIG1        0.0250
     40 N           1.1792    6.1645    3.1224 N.am    1  LIG1       -0.3066
     41 H           1.1860    5.6781    3.8293 H       1  LIG1        0.1495
     42 O           2.1968    6.8214    1.1961 O.2     1  LIG1       -0.2702
@<TRIPOS>BOND
     1    12    11    1
     2    11     9   ar
     3    11    13   ar
     4    10     9    1
     5    14    13    1
     6     9     7   ar
     7    13     4   ar
     8     3     2    1
     9     7     8    1
    10     7     5   ar
    11     4     5   ar
    12     4     2    1
    13     5     6    1
    14     2     1    2
    15    42    26    2
    16    33    32    1
    17    35    32    1
    18    26     1    1
    19    26    40   am
    20     1    15    1
    21    32    34    1
    22    32    27    1
    23    17    16    1
    24    39    36    1
    25    40    27    1
    26    40    41    1
    27    15    16   ar
    28    15    24   ar
    29    16    18   ar
    30    27    36    1
    31    27    28    1
    32    36    38    1
    33    36    37    1
    34    25    24    1
    35    24    22   ar
    36    29    28    1
    37    18    19    1
    38    18    20   ar
    39    28    30    1
    40    28    31    1
    41    22    20   ar
    42    22    23    1
    43    20    21    1
