@<TRIPOS>MOLECULE
?
 38 37 0 0 0
SMALL
GASTEIGER

@<TRIPOS>ATOM
      1 S           5.9991    3.3934   11.6793 S.3     1  LIG1        0.0319
      2 O           7.3939    3.5426   10.3455 O.3     1  LIG1       -0.2849
      3 F           8.7364    4.6204   12.9475 F       1  LIG1       -0.1649
      4 F           9.7033    6.2101   10.8410 F       1  LIG1       -0.1919
      5 N           7.0485   -0.0000    7.7862 N.3     2  LIG2       -0.2409
      6 F           5.8140    6.3835    8.3667 F       1  LIG1       -0.1649
      7 F           8.4033    4.1222    7.9457 F       1  LIG1       -0.1919
      8 F           5.6290    4.2746    8.2529 F       1  LIG1       -0.1649
      9 F           8.4935    6.2617    8.3387 F       1  LIG1       -0.1919
     10 F           9.5527    2.9169   11.9429 F       1  LIG1       -0.1649
     11 C           6.9410    5.7939   10.9267 C.2     1  LIG1        0.0107
     12 F          10.1883    4.3720    9.8006 F       1  LIG1       -0.1919
     13 F          10.8067    4.5698   12.4504 F       1  LIG1       -0.1649
     14 C           6.9515    7.1811   10.9300 C.2     1  LIG1       -0.0723
     15 H           7.6009    7.6567   10.4257 H       1  LIG1        0.0579
     16 F           6.5575    5.3634    6.6678 F       1  LIG1       -0.1649
     17 C           7.8433    4.8273   10.1607 C.3     1  LIG1        0.2526
     18 C           9.3174    4.9237   10.6690 C.3     1  LIG1        0.3808
     19 C           9.5885    4.2310   12.0267 C.3     1  LIG1        0.4575
     20 C           7.8127    5.1272    8.6251 C.3     1  LIG1        0.3808
     21 C           6.4256    5.2806    7.9770 C.3     1  LIG1        0.4575
     22 C           6.1856    1.1742    8.2264 C.3     2  LIG2        0.0111
     23 H           6.7802    1.8899    8.5648 H       2  LIG2        0.0438
     24 H           5.7123    1.5301    7.4327 H       2  LIG2        0.0438
     25 C           5.1652    0.8606    9.2891 C.3     2  LIG2       -0.0510
     26 H           4.5065    0.2270    8.9339 H       2  LIG2        0.0242
     27 H           4.7117    1.6860    9.5599 H       2  LIG2        0.0242
     28 H           5.6128    0.4647   10.0660 H       2  LIG2        0.0242
     29 C           8.8979    0.5142    9.4725 C.3     2  LIG2       -0.0510
     30 H           9.5038    0.7952    8.7548 H       2  LIG2        0.0242
     31 H           9.4174    0.1050   10.1968 H       2  LIG2        0.0242
     32 H           8.4167    1.2954    9.8168 H       2  LIG2        0.0242
     33 C           7.9003   -0.4979    8.9281 C.3     2  LIG2        0.0111
     34 H           8.3975   -1.2985    8.6240 H       2  LIG2        0.0438
     35 H           7.3033   -0.7797    9.6658 H       2  LIG2        0.0438
     36 C           5.9991    5.1194   11.6793 C.2     1  LIG1        0.0574
     37 C           5.9991    7.8688   11.6793 C.3     1  LIG1       -0.0086
     38 H           5.9991    8.8193   11.6793 H       1  LIG1        0.0355
@<TRIPOS>BOND
     1    16    21    1
     2    24    22    1
     3     5    22    1
     4     5    33    1
     5     7    20    1
     6    21     8    1
     7    21     6    1
     8    21    20    1
     9    22    23    1
    10    22    25    1
    11     9    20    1
    12    34    33    1
    13    20    17    1
    14    30    29    1
    15    33    29    1
    16    33    35    1
    17    26    25    1
    18    25    27    1
    19    25    28    1
    20    29    32    1
    21    29    31    1
    22    12    18    1
    23    17     2    1
    24    17    18    1
    25    17    11    1
    26     2     1    1
    27    15    14    1
    28    18     4    1
    29    18    19    1
    30    11    14    2
    31    11    36    1
    32    14    37    1
    33    36     1    2
    34    37    38    1
    35    10    19    1
    36    19    13    1
    37    19     3    1
