@<TRIPOS>MOLECULE
?
 33 35 0 0 0
SMALL
GASTEIGER

@<TRIPOS>ATOM
      1 BR          2.3770    4.1331   17.4747 Br      1  LIG1       -0.0503
      2 O          -1.1232   11.3428   17.1981 O.3     1  LIG1       -0.4948
      3 C           2.2643    5.8674   16.6991 C.ar    1  LIG1        0.0179
      4 C           1.2544    6.1574   15.8038 C.ar    1  LIG1       -0.0475
      5 H           0.6290    5.4888   15.5486 H       1  LIG1        0.0629
      6 C           1.1653    7.4437   15.2792 C.ar    1  LIG1       -0.0572
      7 H           0.4784    7.6481   14.6548 H       1  LIG1        0.0621
      8 C           2.0720    8.4386   15.6562 C.ar    1  LIG1       -0.0436
      9 C           1.9671    9.8429   15.1589 C.3     1  LIG1       -0.0083
     10 H           2.7626   10.4149   15.3575 H       1  LIG1        0.0355
     11 C           0.6259   10.5750   15.2157 C.3     1  LIG1       -0.0050
     12 H          -0.1501   10.0086   15.4924 H       1  LIG1        0.0356
     13 C           0.5674   11.9898   15.6873 C.ar    1  LIG1       -0.0021
     14 C          -0.3451   12.3612   16.6896 C.ar    1  LIG1        0.1235
     15 C          -2.1136   11.6869   18.1785 C.3     1  LIG1        0.0788
     16 H          -1.6737   12.0660   18.9683 H       1  LIG1        0.0660
     17 H          -2.6109   10.8824   18.4361 H       1  LIG1        0.0660
     18 H          -2.7321   12.3460   17.8009 H       1  LIG1        0.0660
     19 C           3.0856    8.1035   16.5479 C.ar    1  LIG1       -0.0572
     20 H           3.7151    8.7665   16.8041 H       1  LIG1        0.0621
     21 C           3.2004    6.8232   17.0744 C.ar    1  LIG1       -0.0475
     22 H           3.9022    6.6058   17.6772 H       1  LIG1        0.0629
     23 C           1.2359   10.2043   13.8982 C.3     1  LIG1       -0.0381
     24 H           1.6100   10.9340   13.3432 H       1  LIG1        0.0277
     25 H           0.8129    9.4705   13.3863 H       1  LIG1        0.0277
     26 C           1.4214   12.9761   15.1915 C.ar    1  LIG1       -0.0548
     27 H           2.0530   12.7455   14.5199 H       1  LIG1        0.0622
     28 C           1.3745   14.2874   15.6528 C.ar    1  LIG1       -0.0613
     29 H           1.9777   14.9388   15.3144 H       1  LIG1        0.0618
     30 C           0.4383   14.6320   16.6118 C.ar    1  LIG1       -0.0583
     31 H           0.3898   15.5286   16.9202 H       1  LIG1        0.0619
     32 C          -0.4309   13.6804   17.1280 C.ar    1  LIG1       -0.0197
     33 H          -1.0800   13.9278   17.7766 H       1  LIG1        0.0654
@<TRIPOS>BOND
     1    24    23    1
     2    25    23    1
     3    23     9    1
     4    23    11    1
     5    27    26    1
     6     7     6    1
     7     9    11    1
     8     9    10    1
     9     9     8    1
    10    26    28   ar
    11    26    13   ar
    12    11    12    1
    13    11    13    1
    14     6     8   ar
    15     6     4   ar
    16    29    28    1
    17     5     4    1
    18    28    30   ar
    19     8    19   ar
    20    13    14   ar
    21     4     3   ar
    22    19    20    1
    23    19    21   ar
    24    30    31    1
    25    30    32   ar
    26    14    32   ar
    27    14     2    1
    28     3    21   ar
    29     3     1    1
    30    21    22    1
    31    32    33    1
    32     2    15    1
    33    18    15    1
    34    15    17    1
    35    15    16    1
