@<TRIPOS>MOLECULE
?
 41 44 0 0 0
SMALL
GASTEIGER

@<TRIPOS>ATOM
      1 O           1.0481    3.5902    1.4108 O.3     1  LIG1        0.0000
      2 C          -0.1209   -0.2111   -1.5035 C.3     1  LIG1        0.0000
      3 H           0.3573   -0.6415   -2.2426 H       1  LIG1        0.0000
      4 H          -0.7795    0.4188   -1.8630 H       1  LIG1        0.0000
      5 H          -0.5791   -0.8933   -0.9696 H       1  LIG1        0.0000
      6 C           0.8591    0.5299   -0.6357 C.ar    1  LIG1        0.0000
      7 C           0.5064    1.7448   -0.0396 C.ar    1  LIG1        0.0000
      8 H          -0.3389    2.1393   -0.2180 H       1  LIG1        0.0000
      9 C           1.4030    2.3656    0.8141 C.ar    1  LIG1        0.0000
     10 C          -1.2332    3.9429    2.8315 C.3     2  LIG2        0.0000
     11 H          -1.6295    4.1566    1.9712 H       2  LIG2        0.0000
     12 C          -0.1278    5.0161    3.3465 C.3     2  LIG2        0.0000
     13 H          -0.0077    5.7895    2.8128 H       2  LIG2        0.0000
     14 C           2.1198   -0.0052   -0.3699 C.ar    1  LIG1        0.0000
     15 H           2.3738   -0.8178   -0.7912 H       1  LIG1        0.0000
     16 C           3.0172    0.6154    0.4941 C.ar    1  LIG1        0.0000
     17 C           2.6408    1.8247    1.0862 C.ar    1  LIG1        0.0000
     18 H           3.2368    2.2731    1.6755 H       1  LIG1        0.0000
     19 C           4.3613    0.0001    0.8050 C.3     1  LIG1        0.0000
     20 H           4.3889   -0.9172    0.4604 H       1  LIG1        0.0000
     21 H           4.4998   -0.0106    1.7746 H       1  LIG1        0.0000
     22 H           5.0690    0.5289    0.3796 H       1  LIG1        0.0000
     23 B           0.4751    3.5364    2.6672 B       1  LIG1        0.0000
     24 B           0.7673    2.5299    4.0865 B       1  LIG1        0.0000
     25 H           1.5377    1.7602    4.0507 H       1  LIG1        0.0000
     26 B           0.4238    3.4978    5.5568 B       2  LIG2        0.0000
     27 H           1.0251    3.3454    6.5022 H       2  LIG2        0.0000
     28 B          -1.3166    3.9123    5.5685 B       2  LIG2        0.0000
     29 H          -1.8666    4.0095    6.4656 H       2  LIG2        0.0000
     30 B          -0.7757    2.3627    3.2031 B       2  LIG2        0.0000
     31 H          -1.0328    1.6184    2.4880 H       2  LIG2        0.0000
     32 B          -1.6448    4.9336    4.1692 B       2  LIG2        0.0000
     33 H          -2.3639    5.7153    4.0553 H       2  LIG2        0.0000
     34 B          -0.1010    5.1082    5.0514 B       2  LIG2        0.0000
     35 H           0.0842    6.0612    5.5295 H       2  LIG2        0.0000
     36 B           1.1751    4.2661    4.1435 B       2  LIG2        0.0000
     37 H           2.1497    4.7133    4.0477 H       2  LIG2        0.0000
     38 B          -2.0518    3.2008    4.1234 B       2  LIG2        0.0000
     39 H          -3.0906    2.9372    3.9638 H       2  LIG2        0.0000
     40 B          -0.7665    2.3153    4.9776 B       2  LIG2        0.0000
     41 H          -0.9486    1.3904    5.5143 H       2  LIG2        0.0000
@<TRIPOS>BOND
     1     3     2    1
     2     4     2    1
     3     2     5    1
     4     2     6    1
     5    15    14    1
     6     6    14   ar
     7     6     7   ar
     8    14    16   ar
     9     8     7    1
    10     7     9   ar
    11    22    19    1
    12    20    19    1
    13    16    19    1
    14    16    17   ar
    15    19    21    1
    16     9    17   ar
    17     9     1    1
    18    17    18    1
    19     1    23    1
    20    11    10    1
    21    31    30    1
    22    23    24    2
    23    13    12    1
    24    10    30    1
    25    10    12    1
    26    10    38    1
    27    30    40    1
    28    12    36    1
    29    12    34    1
    30    39    38    1
    31    37    36    1
    32    25    24    1
    33    33    32    1
    34    38    40    1
    35    38    28    1
    36    36    34    1
    37    36    26    1
    38    32    28    1
    39    40    41    1
    40    40    26    1
    41    34    35    1
    42    34    26    1
    43    26    27    1
    44    28    29    1
