@<TRIPOS>MOLECULE
C22 H21 Br O3
 47 49 0 0 0
SMALL
GASTEIGER

@<TRIPOS>ATOM
      1 BR          5.1589    4.1805   10.8951 Br      1  LIG1       -0.0503
      2 C           5.4535    3.3342    9.2135 C.ar    1  LIG1        0.0179
      3 C           4.8493    2.1228    8.9418 C.ar    1  LIG1       -0.0475
      4 H           4.3076    1.6945    9.5935 H       1  LIG1        0.0629
      5 C           5.0493    1.5410    7.6929 C.ar    1  LIG1       -0.0572
      6 H           4.6393    0.7070    7.4974 H       1  LIG1        0.0621
      7 C           5.8378    2.1552    6.7262 C.ar    1  LIG1       -0.0409
      8 C           6.4584    3.3690    7.0547 C.ar    1  LIG1       -0.0572
      9 H           7.0222    3.7919    6.4176 H       1  LIG1        0.0621
     10 C           6.2645    3.9602    8.2863 C.ar    1  LIG1       -0.0475
     11 H           6.6836    4.7871    8.4938 H       1  LIG1        0.0629
     12 C           6.0024    1.5091    5.3590 C.3     1  LIG1        0.0249
     13 H           5.4986    0.6462    5.3735 H       1  LIG1        0.0383
     14 C           7.4695    1.1766    5.0483 C.3     1  LIG1       -0.0549
     15 H           7.5267    0.7330    4.1763 H       1  LIG1        0.0237
     16 H           7.8234    0.5806    5.7414 H       1  LIG1        0.0237
     17 H           7.9955    2.0035    5.0294 H       1  LIG1        0.0237
     18 C           5.3750    2.3956    4.2344 C.3     1  LIG1        0.1939
     19 O           6.1612    3.5728    4.1457 O.3     1  LIG1       -0.3728
     20 H           5.7729    4.1286    3.8959 H       1  LIG1        0.2114
     21 C           3.9292    2.6910    4.6939 C.2     1  LIG1        0.3444
     22 O           3.1158    1.8339    4.9041 O.2     1  LIG1       -0.2472
     23 O           3.7155    3.9975    4.8431 O.3     1  LIG1       -0.4627
     24 C           2.4205    4.3873    5.4029 C.3     1  LIG1        0.0898
     25 H           1.7012    3.8657    4.9658 H       1  LIG1        0.0694
     26 H           2.2568    5.3471    5.2223 H       1  LIG1        0.0694
     27 C           2.3891    4.1439    6.8875 C.3     1  LIG1       -0.0306
     28 H           2.4223    3.1800    7.0619 H       1  LIG1        0.0262
     29 H           1.5629    4.5143    7.2628 H       1  LIG1        0.0262
     30 H           3.1614    4.5781    7.3065 H       1  LIG1        0.0262
     31 C           5.3452    1.6585    2.8956 C.ar    1  LIG1       -0.0042
     32 C           4.6728    0.4146    2.7603 C.ar    1  LIG1       -0.0547
     33 H           4.2039    0.0549    3.5041 H       1  LIG1        0.0622
     34 C           4.6870   -0.2741    1.5780 C.ar    1  LIG1       -0.0537
     35 H           4.2364   -1.1080    1.5154 H       1  LIG1        0.0624
     36 C           5.3696    0.2416    0.4393 C.ar    1  LIG1       -0.0179
     37 C           5.4148   -0.4512   -0.7967 C.ar    1  LIG1       -0.0540
     38 H           4.9888   -1.2959   -0.8830 H       1  LIG1        0.0624
     39 C           6.0748    0.0969   -1.8696 C.ar    1  LIG1       -0.0612
     40 H           6.1053   -0.3745   -2.6927 H       1  LIG1        0.0618
     41 C           6.7048    1.3520   -1.7592 C.ar    1  LIG1       -0.0612
     42 H           7.1502    1.7223   -2.5117 H       1  LIG1        0.0618
     43 C           6.6818    2.0442   -0.5755 C.ar    1  LIG1       -0.0540
     44 H           7.1143    2.8876   -0.5111 H       1  LIG1        0.0624
     45 C           6.0108    1.5008    0.5564 C.ar    1  LIG1       -0.0175
     46 C           5.9901    2.1860    1.7976 C.ar    1  LIG1       -0.0476
     47 H           6.4294    3.0247    1.8734 H       1  LIG1        0.0627
@<TRIPOS>BOND
     1    40    39    1
     2    42    41    1
     3    39    41   ar
     4    39    37   ar
     5    41    43   ar
     6    38    37    1
     7    37    36   ar
     8    43    44    1
     9    43    45   ar
    10    36    45   ar
    11    36    34   ar
    12    45    46   ar
    13    35    34    1
    14    34    32   ar
    15    46    47    1
    16    46    31   ar
    17    32    31   ar
    18    32    33    1
    19    31    18    1
    20    20    19    1
    21    19    18    1
    22    15    14    1
    23    18    21    1
    24    18    12    1
    25    21    23    1
    26    21    22    2
    27    23    24    1
    28    25    24    1
    29    17    14    1
    30    14    12    1
    31    14    16    1
    32    26    24    1
    33    12    13    1
    34    12     7    1
    35    24    27    1
    36     9     8    1
    37     7     8   ar
    38     7     5   ar
    39    27    28    1
    40    27    29    1
    41    27    30    1
    42     8    10   ar
    43     6     5    1
    44     5     3   ar
    45    10    11    1
    46    10     2   ar
    47     3     2   ar
    48     3     4    1
    49     2     1    1
