@<TRIPOS>MOLECULE
?
 63 65 0 0 0
SMALL
GASTEIGER

@<TRIPOS>ATOM
      1 O          -0.3424    6.8487    3.0435 O.3     1  LIG1        0.0000
      2 H           0.2067    7.1509    3.5993 H       1  LIG1        0.0000
      3 N          -2.5945    8.0461    2.1496 N.4     1  LIG1        1.0000
      4 H          -1.8250    7.7303    2.5206 H       1  LIG1        0.0000
      5 C          -3.3335    6.8231    1.6522 C.3     1  LIG1        0.0000
      6 H          -3.2394    6.7840    0.6769 H       1  LIG1        0.0000
      7 H          -4.2863    6.9395    1.8492 H       1  LIG1        0.0000
      8 C          -2.8889    5.4855    2.2256 C.3     1  LIG1        0.0000
      9 H          -3.5372    4.8066    1.9449 H       1  LIG1        0.0000
     10 H          -2.9381    5.5464    3.2019 H       1  LIG1        0.0000
     11 C          -1.4818    4.9794    1.8514 C.3     1  LIG1        0.0000
     12 H          -1.2492    5.3357    0.9686 H       1  LIG1        0.0000
     13 H          -1.5161    4.0031    1.7743 H       1  LIG1        0.0000
     14 C          -2.0730    8.9594    1.0038 C.3     1  LIG1        0.0000
     15 C          -1.2692   10.0780    1.6489 C.3     1  LIG1        0.0000
     16 H          -0.4476    9.6946    2.0209 H       1  LIG1        0.0000
     17 H          -1.0070   10.7137    0.9499 H       1  LIG1        0.0000
     18 C          -1.9803   10.8400    2.7440 C.3     1  LIG1        0.0000
     19 H          -2.7603   11.3043    2.3742 H       1  LIG1        0.0000
     20 H          -1.3776   11.5105    3.1282 H       1  LIG1        0.0000
     21 C          -2.4212    9.8695    3.8172 C.3     1  LIG1        0.0000
     22 H          -2.8894   10.3677    4.5195 H       1  LIG1        0.0000
     23 H          -1.6253    9.4642    4.2212 H       1  LIG1        0.0000
     24 C          -3.3346    8.7596    3.3131 C.3     1  LIG1        0.0000
     25 C          -1.1195    8.1261    0.1420 C.3     1  LIG1        0.0000
     26 H          -0.6713    8.7039   -0.4953 H       1  LIG1        0.0000
     27 H          -1.6244    7.4487   -0.3346 H       1  LIG1        0.0000
     28 H          -0.4608    7.6982    0.7111 H       1  LIG1        0.0000
     29 C          -3.2000    9.4887    0.1167 C.3     1  LIG1        0.0000
     30 H          -2.8276    9.8231   -0.7144 H       1  LIG1        0.0000
     31 H          -3.6622   10.2086    0.5757 H       1  LIG1        0.0000
     32 H          -3.8255    8.7727   -0.0748 H       1  LIG1        0.0000
     33 C          -4.7047    9.3111    2.8970 C.3     1  LIG1        0.0000
     34 H          -5.2298    9.5035    3.6896 H       1  LIG1        0.0000
     35 H          -5.1678    8.6526    2.3555 H       1  LIG1        0.0000
     36 H          -4.5839   10.1249    2.3841 H       1  LIG1        0.0000
     37 C          -3.5246    7.7465    4.4391 C.3     1  LIG1        0.0000
     38 H          -2.6868    7.2872    4.6053 H       1  LIG1        0.0000
     39 H          -4.2021    7.1010    4.1827 H       1  LIG1        0.0000
     40 H          -3.8068    8.2080    5.2448 H       1  LIG1        0.0000
     41 B          -0.2938    5.3681    2.8871 B       1  LIG1        0.0000
     42 C          -0.5337    4.5783    4.3467 C.ar    1  LIG1        0.0000
     43 F          -0.4178    2.4616    3.2858 F       1  LIG1        0.0000
     44 C          -0.6179    3.1933    4.4094 C.ar    1  LIG1        0.0000
     45 F          -0.9742    1.1270    5.5157 F       1  LIG1        0.0000
     46 C          -0.8919    2.4736    5.5508 C.ar    1  LIG1        0.0000
     47 F          -1.4050    2.4634    7.8505 F       1  LIG1        0.0000
     48 C          -1.1016    3.1402    6.7297 C.ar    1  LIG1        0.0000
     49 F          -1.2098    5.1686    7.9022 F       1  LIG1        0.0000
     50 C          -1.0061    4.5038    6.7484 C.ar    1  LIG1        0.0000
     51 F          -0.5883    6.5208    5.7300 F       1  LIG1        0.0000
     52 C          -0.7089    5.1795    5.5839 C.ar    1  LIG1        0.0000
     53 C           1.2212    4.9041    2.3649 C.ar    1  LIG1        0.0000
     54 F           2.1979    6.2069    4.0813 F       1  LIG1        0.0000
     55 C           2.3465    5.3779    3.0170 C.ar    1  LIG1        0.0000
     56 F           4.6839    5.5859    3.3596 F       1  LIG1        0.0000
     57 C           3.6467    5.0690    2.6780 C.ar    1  LIG1        0.0000
     58 F           5.1285    3.9035    1.2602 F       1  LIG1        0.0000
     59 C           3.8768    4.2261    1.6202 C.ar    1  LIG1        0.0000
     60 F           3.0208    2.8798   -0.1039 F       1  LIG1        0.0000
     61 C           2.8126    3.7065    0.9378 C.ar    1  LIG1        0.0000
     62 F           0.5515    3.4734    0.5748 F       1  LIG1        0.0000
     63 C           1.5256    4.0492    1.3153 C.ar    1  LIG1        0.0000
@<TRIPOS>BOND
     1    30    29    1
     2    26    25    1
     3    27    25    1
     4    60    61    1
     5    32    29    1
     6    29    31    1
     7    29    14    1
     8    25    28    1
     9    25    14    1
    10    62    63    1
    11     6     5    1
    12    61    63   ar
    13    61    59   ar
    14    17    15    1
    15    12    11    1
    16    14    15    1
    17    14     3    1
    18    58    59    1
    19    63    53   ar
    20    59    57   ar
    21    15    16    1
    22    15    18    1
    23     5     7    1
    24     5     3    1
    25     5     8    1
    26    13    11    1
    27    11     8    1
    28    11    41    1
    29     9     8    1
    30     3     4    1
    31     3    24    1
    32     8    10    1
    33    35    33    1
    34    53    41    1
    35    53    55   ar
    36    19    18    1
    37    36    33    1
    38    57    55   ar
    39    57    56    1
    40    18    20    1
    41    18    21    1
    42    41     1    1
    43    41    42    1
    44    33    24    1
    45    33    34    1
    46    55    54    1
    47     1     2    1
    48    43    44    1
    49    24    21    1
    50    24    37    1
    51    21    23    1
    52    21    22    1
    53    39    37    1
    54    42    44   ar
    55    42    52   ar
    56    44    46   ar
    57    37    38    1
    58    37    40    1
    59    45    46    1
    60    46    48   ar
    61    52    51    1
    62    52    50   ar
    63    48    50   ar
    64    48    47    1
    65    50    49    1
