@<TRIPOS>MOLECULE
3(C13 H12 N2 O), C4 H12 N, C H2 Cl2, F
 107 107 0 0 0
SMALL
GASTEIGER

@<TRIPOS>ATOM
      1 N          15.7264    4.3641   -0.4512 N.am    1  LIG1       -0.2692
      2 C          14.3846    4.7818   -0.5345 C.ar    1  LIG1        0.0348
      3 C          13.8908    5.5680    0.5169 C.ar    1  LIG1       -0.0404
      4 C          12.5658    5.9631    0.5330 C.ar    1  LIG1       -0.0600
      5 C          11.7095    5.5943   -0.4865 C.ar    1  LIG1       -0.0616
      6 C          12.1917    4.8145   -1.5281 C.ar    1  LIG1       -0.0600
      7 C          13.5184    4.4077   -1.5585 C.ar    1  LIG1       -0.0404
      8 O          17.4284   -1.4612    2.0346 O.2     2  LIG2       -0.2522
      9 O          18.3916    4.0650    5.9944 O.2     3  LIG3       -0.2522
     10 N          16.5877    0.5150    1.2139 N.am    2  LIG2       -0.2692
     11 C          15.5664    0.0748    0.3617 C.ar    2  LIG2        0.0348
     12 C          14.6547    1.0432   -0.0541 C.ar    2  LIG2       -0.0404
     13 C          13.6136    0.7030   -0.8987 C.ar    2  LIG2       -0.0600
     14 C          13.4754   -0.5957   -1.3446 C.ar    2  LIG2       -0.0616
     15 C          14.3770   -1.5507   -0.9422 C.ar    2  LIG2       -0.0600
     16 C          15.4277   -1.2306   -0.0910 C.ar    2  LIG2       -0.0404
     17 N          18.3724    0.5669    2.5939 N.am    2  LIG2       -0.2692
     18 C          19.4489    0.1716    3.4090 C.ar    2  LIG2        0.0348
     19 C          20.4165    1.1432    3.6757 C.ar    2  LIG2       -0.0404
     20 C          21.5012    0.8450    4.4809 C.ar    2  LIG2       -0.0600
     21 C          21.6484   -0.4116    5.0310 C.ar    2  LIG2       -0.0616
     22 C          20.6850   -1.3759    4.7731 C.ar    2  LIG2       -0.0600
     23 C          19.5828   -1.0957    3.9674 C.ar    2  LIG2       -0.0404
     24 N          16.9283    3.5548    4.2985 N.am    3  LIG3       -0.2692
     25 C          15.8893    2.9624    5.0310 C.ar    3  LIG3        0.0348
     26 C          15.0550    2.0689    4.3618 C.ar    3  LIG3       -0.0404
     27 C          14.0023    1.4669    5.0189 C.ar    3  LIG3       -0.0600
     28 C          13.7583    1.7339    6.3583 C.ar    3  LIG3       -0.0616
     29 C          14.5736    2.6215    7.0216 C.ar    3  LIG3       -0.0600
     30 C          15.6373    3.2349    6.3764 C.ar    3  LIG3       -0.0404
     31 N          18.8954    4.5645    3.8156 N.am    3  LIG3       -0.2692
     32 C          20.2317    4.9684    3.9360 C.ar    3  LIG3        0.0348
     33 C          20.7323    5.8411    2.9709 C.ar    3  LIG3       -0.0404
     34 C          22.0556    6.2288    2.9941 C.ar    3  LIG3       -0.0600
     35 C          22.9041    5.7589    3.9637 C.ar    3  LIG3       -0.0616
     36 C          22.4145    4.8877    4.9249 C.ar    3  LIG3       -0.0600
     37 C          21.0860    4.4891    4.9276 C.ar    3  LIG3       -0.0404
     38 C          17.4561   -0.2365    1.9550 C.2     2  LIG2        0.3081
     39 C          18.0906    4.0588    4.8026 C.2     3  LIG3        0.3081
     40 N          17.6379    3.2538   -0.9842 N.am    1  LIG1       -0.2692
     41 C          18.6102    2.5827   -1.7511 C.ar    1  LIG1        0.0348
     42 C          19.3702    1.5976   -1.1135 C.ar    1  LIG1       -0.0404
     43 C          20.3595    0.9070   -1.7993 C.ar    1  LIG1       -0.0600
     44 C          20.6094    1.1896   -3.1358 C.ar    1  LIG1       -0.0616
     45 C          19.8660    2.1643   -3.7699 C.ar    1  LIG1       -0.0600
     46 C          18.8698    2.8681   -3.0935 C.ar    1  LIG1       -0.0404
     47 N          16.4009    7.6928    7.7952 N.4     4  LIG4        0.2347
     48 C          15.4748    8.7780    7.3665 C.3     4  LIG4       -0.0421
     49 C          17.2343    8.1708    8.9408 C.3     4  LIG4       -0.0421
     50 C          17.2879    7.3137    6.6501 C.3     4  LIG4       -0.0421
     51 C          15.6142    6.5018    8.2254 C.3     4  LIG4       -0.0421
     52 C          11.4611    3.6150    2.9229 C.3     1  LIG1        0.0970
     53 CL         10.7300    2.7135    4.2646 Cl      1  LIG1       -0.1083
     54 CL         12.3797    2.5936    1.8646 Cl      1  LIG1       -0.1083
     55 O          16.1551    3.8383   -2.6403 O.2     1  LIG1       -0.2522
     56 C          16.4847    3.8147   -1.4561 C.2     1  LIG1        0.3081
     57 F          17.3975    3.0399    1.6791 F       5  LIG5        0.0000
     58 H          12.0674    4.2749    3.3128 H       1  LIG1        0.0597
     59 H          10.7261    4.0519    2.4203 H       1  LIG1        0.0597
     60 H          18.3507    3.5255   -3.5551 H       1  LIG1        0.0636
     61 H          20.0285    2.3665   -4.6626 H       1  LIG1        0.0618
     62 H          21.2760    0.7282   -3.5946 H       1  LIG1        0.0618
     63 H          20.8319    0.2382   -1.3746 H       1  LIG1        0.0618
     64 H          19.2090    1.4214   -0.2126 H       1  LIG1        0.0636
     65 H          17.6823    3.1706   -0.1286 H       1  LIG1        0.1564
     66 H          14.4548    5.8299    1.2114 H       1  LIG1        0.0636
     67 H          12.2551    6.4943    1.2509 H       1  LIG1        0.0618
     68 H          10.8360    5.8632   -0.4598 H       1  LIG1        0.0618
     69 H          11.6280    4.5480   -2.2176 H       1  LIG1        0.0618
     70 H          13.8162    3.8517   -2.2497 H       1  LIG1        0.0636
     71 H          16.0640    4.3493    0.3189 H       1  LIG1        0.1564
     72 H          15.1896    1.8811    3.4735 H       3  LIG3        0.0636
     73 H          13.4683    0.8617    4.5415 H       3  LIG3        0.0618
     74 H          13.0471    1.3259    6.7962 H       3  LIG3        0.0618
     75 H          14.4182    2.8095    7.9284 H       3  LIG3        0.0618
     76 H          16.1899    3.8213    6.8209 H       3  LIG3        0.0636
     77 H          16.9178    3.4254    3.4760 H       3  LIG3        0.1564
     78 H          20.1727    6.1651    2.3041 H       3  LIG3        0.0636
     79 H          22.3747    6.8159    2.3486 H       3  LIG3        0.0618
     80 H          23.8213    6.0483    3.9556 H       3  LIG3        0.0618
     81 H          22.9927    4.5328    5.5724 H       3  LIG3        0.0618
     82 H          20.7701    3.8881    5.5798 H       3  LIG3        0.0636
     83 H          18.5155    4.7589    3.0928 H       3  LIG3        0.1564
     84 H          16.0251   -1.8720    0.1656 H       2  LIG2        0.0636
     85 H          14.2671   -2.4181   -1.2559 H       2  LIG2        0.0618
     86 H          12.7770   -0.8253   -1.9160 H       2  LIG2        0.0618
     87 H          13.0059    1.3638   -1.1496 H       2  LIG2        0.0618
     88 H          14.7433    1.9281    0.2596 H       2  LIG2        0.0636
     89 H          16.6957    1.3577    1.2658 H       2  LIG2        0.1564
     90 H          20.3444    1.9903    3.2905 H       2  LIG2        0.0636
     91 H          22.1343    1.4958    4.6330 H       2  LIG2        0.0618
     92 H          22.3815   -0.6114    5.5699 H       2  LIG2        0.0618
     93 H          20.7678   -2.2437    5.1447 H       2  LIG2        0.0618
     94 H          18.9366   -1.7400    3.8097 H       2  LIG2        0.0636
     95 H          18.2934    1.4123    2.4327 H       2  LIG2        0.1564
     96 H          17.8563    7.4834    9.1522 H       4  LIG4        0.0778
     97 H          17.6731    8.9807    8.6751 H       4  LIG4        0.0778
     98 H          16.6591    8.3238    9.6689 H       4  LIG4        0.0778
     99 H          14.9035    8.4771    6.6503 H       4  LIG4        0.0778
    100 H          15.9862    9.5329    7.0854 H       4  LIG4        0.0778
    101 H          14.9287    8.9944    8.0990 H       4  LIG4        0.0778
    102 H          16.7415    7.0435    5.9185 H       4  LIG4        0.0778
    103 H          17.8311    8.0614    6.4055 H       4  LIG4        0.0778
    104 H          17.8379    6.5732    6.9124 H       4  LIG4        0.0778
    105 H          15.0843    6.1985    7.4785 H       4  LIG4        0.0778
    106 H          16.2265    5.8056    8.5045 H       4  LIG4        0.0778
    107 H          15.0340    6.8038    8.9470 H       4  LIG4        0.0778
@<TRIPOS>BOND
     1    61    45    1
     2    45    44   ar
     3    45    46   ar
     4    62    44    1
     5    60    46    1
     6    44    43   ar
     7    46    41   ar
     8    55    56    2
     9    70     7    1
    10    69     6    1
    11    86    14    1
    12    43    63    1
    13    43    42   ar
    14    41    42   ar
    15    41    40    1
    16     7     6   ar
    17     7     2   ar
    18     6     5   ar
    19    56    40   am
    20    56     1   am
    21    14    15   ar
    22    14    13   ar
    23    85    15    1
    24    87    13    1
    25    42    64    1
    26    40    65    1
    27    15    16   ar
    28    13    12   ar
    29     2     1    1
    30     2     3   ar
    31     5    68    1
    32     5     4   ar
    33     1    71    1
    34    16    84    1
    35    16    11   ar
    36    12    88    1
    37    12    11   ar
    38    11    10    1
    39     3     4   ar
    40     3    66    1
    41     4    67    1
    42    10    89    1
    43    10    38   am
    44    54    52    1
    45    38     8    2
    46    38    17   am
    47    78    33    1
    48    79    34    1
    49    59    52    1
    50    95    17    1
    51    17    18    1
    52    52    58    1
    53    52    53    1
    54    33    34   ar
    55    33    32   ar
    56    34    35   ar
    57    83    31    1
    58    90    19    1
    59    18    19   ar
    60    18    23   ar
    61    72    26    1
    62    77    24    1
    63    19    20   ar
    64    94    23    1
    65    31    32    1
    66    31    39   am
    67    32    37   ar
    68    80    35    1
    69    35    36   ar
    70    23    22   ar
    71    24    39   am
    72    24    25    1
    73    26    27   ar
    74    26    25   ar
    75    20    91    1
    76    20    21   ar
    77    73    27    1
    78    22    21   ar
    79    22    93    1
    80    39     9    2
    81    36    37   ar
    82    36    81    1
    83    37    82    1
    84    27    28   ar
    85    25    30   ar
    86    21    92    1
    87   102    50    1
    88    28    74    1
    89    28    29   ar
    90    30    76    1
    91    30    29   ar
    92   103    50    1
    93    50   104    1
    94    50    47    1
    95    99    48    1
    96    29    75    1
    97   100    48    1
    98    48    47    1
    99    48   101    1
   100   105    51    1
   101    47    51    1
   102    47    49    1
   103    51   106    1
   104    51   107    1
   105    97    49    1
   106    49    96    1
   107    49    98    1
