@<TRIPOS>MOLECULE
maimone78
 47 48 0 0 0
SMALL
GASTEIGER

@<TRIPOS>ATOM
      1 C           1.3458    8.0366    6.0487 C.3     1  LIG1       -0.0064
      2 C           2.1832    9.1463    6.7374 C.3     1  LIG1       -0.0370
      3 H           3.0403    9.2309    6.2285 H       1  LIG1        0.0304
      4 C           1.3674   10.4325    6.4803 C.3     1  LIG1       -0.0496
      5 H           1.9727   11.2001    6.3219 H       1  LIG1        0.0268
      6 H           0.7935   10.6384    7.2605 H       1  LIG1        0.0268
      7 C           0.4967   10.1616    5.2249 C.3     1  LIG1       -0.0487
      8 H          -0.4653   10.2148    5.4527 H       1  LIG1        0.0268
      9 H           0.6911   10.8288    4.5195 H       1  LIG1        0.0268
     10 C           0.8577    8.7377    4.7364 C.3     1  LIG1       -0.0237
     11 H           0.0148    8.2885    4.4390 H       1  LIG1        0.0313
     12 C           1.8487    8.7531    3.5309 C.3     1  LIG1        0.0300
     13 C           2.4109    7.3108    3.2843 C.3     1  LIG1        0.1284
     14 C           3.0470    6.8402    4.5878 C.2     1  LIG1        0.1655
     15 C           2.1523    6.7438    5.7856 C.3     1  LIG1        0.0154
     16 H           2.7033    6.5404    6.5835 H       1  LIG1        0.0348
     17 H           1.5211    5.9922    5.6558 H       1  LIG1        0.0348
     18 C           0.0796    7.7094    6.8759 C.3     1  LIG1        0.0513
     19 H          -0.3752    8.5633    7.0867 H       1  LIG1        0.0383
     20 H          -0.5325    7.1866    6.2999 H       1  LIG1        0.0383
     21 C           0.2610    6.9480    8.1739 C.2     1  LIG1        0.3053
     22 C           2.5441    8.9487    8.2087 C.3     1  LIG1       -0.0619
     23 H           1.7253    8.9306    8.7463 H       1  LIG1        0.0233
     24 H           3.1149    9.6880    8.5066 H       1  LIG1        0.0233
     25 H           3.0248    8.1008    8.3163 H       1  LIG1        0.0233
     26 C           3.0569    9.7072    3.6897 C.3     1  LIG1       -0.0541
     27 H           3.4420    9.8958    2.8087 H       1  LIG1        0.0237
     28 H           3.7344    9.2845    4.2579 H       1  LIG1        0.0237
     29 H           2.7601   10.5446    4.1023 H       1  LIG1        0.0237
     30 C           1.1440    9.2710    2.2643 C.3     1  LIG1        0.0560
     31 H           1.0546   10.2551    2.3293 H       1  LIG1        0.0566
     32 H           1.7148    9.0740    1.4803 H       1  LIG1        0.0566
     33 C          -0.6306    9.1384    0.7718 C.3     1  LIG1        0.0365
     34 H          -0.6559   10.1183    0.7465 H       1  LIG1        0.0523
     35 H          -1.5328    8.7845    0.6294 H       1  LIG1        0.0523
     36 H          -0.0352    8.8086    0.0677 H       1  LIG1        0.0523
     37 C           1.3736    6.2875    2.8124 C.3     1  LIG1       -0.0285
     38 H           1.0829    6.5123    1.9030 H       1  LIG1        0.0262
     39 H           0.6010    6.3032    3.4162 H       1  LIG1        0.0262
     40 H           1.7722    5.3930    2.8160 H       1  LIG1        0.0262
     41 O           0.9379    5.9603    8.3148 O.2     1  LIG1       -0.2510
     42 O          -0.4761    7.4649    9.1547 O.3     1  LIG1       -0.4806
     43 H          -0.3955    6.9922    9.8442 H       1  LIG1        0.2951
     44 O          -0.1448    8.7075    2.0464 O.3     1  LIG1       -0.3823
     45 O           3.4202    7.3476    2.2746 O.3     1  LIG1       -0.3807
     46 H           4.1744    7.4265    2.6349 H       1  LIG1        0.2108
     47 O           4.2312    6.5572    4.6158 O.2     1  LIG1       -0.2943
@<TRIPOS>BOND
     1    36    33    1
     2    35    33    1
     3    34    33    1
     4    33    44    1
     5    32    30    1
     6    38    37    1
     7    44    30    1
     8    30    31    1
     9    30    12    1
    10    45    46    1
    11    45    13    1
    12    27    26    1
    13    37    40    1
    14    37    13    1
    15    37    39    1
    16    13    12    1
    17    13    14    1
    18    12    26    1
    19    12    10    1
    20    26    29    1
    21    26    28    1
    22    11    10    1
    23     9     7    1
    24    14    47    2
    25    14    15    1
    26    10     7    1
    27    10     1    1
    28     7     8    1
    29     7     4    1
    30    17    15    1
    31    15     1    1
    32    15    16    1
    33     1     2    1
    34     1    18    1
    35     3     2    1
    36    20    18    1
    37     5     4    1
    38     4     2    1
    39     4     6    1
    40     2    22    1
    41    18    19    1
    42    18    21    1
    43    21    41    2
    44    21    42    1
    45    22    25    1
    46    22    24    1
    47    22    23    1
    48    42    43    1
