@<TRIPOS>MOLECULE
?
 32 33 0 0 0
SMALL
GASTEIGER

@<TRIPOS>ATOM
      1 C           4.5628    0.2845    0.2683 C.ar    1  LIG1        0.0000
      2 C           5.0979    1.2810    1.0775 C.ar    1  LIG1        0.0000
      3 C           6.0209    1.0291    2.0714 C.ar    1  LIG1        0.0000
      4 H           6.3449    1.7283    2.5935 H       1  LIG1        0.0000
      5 C           6.4549   -0.2421    2.2871 C.ar    1  LIG1        0.0000
      6 H           7.0842   -0.4105    2.9502 H       1  LIG1        0.0000
      7 C           5.9657   -1.2782    1.5250 C.ar    1  LIG1        0.0000
      8 H           6.2535   -2.1516    1.6652 H       1  LIG1        0.0000
      9 C           5.0345   -0.9880    0.5456 C.ar    1  LIG1        0.0000
     10 B           3.4803    0.5988   -0.8488 B       1  LIG1        0.0000
     11 O           3.9046    0.8790   -2.0965 O.3     1  LIG1        0.0000
     12 O           2.1975    0.5761   -0.4694 O.3     1  LIG1        0.0000
     13 BR          4.5733    3.0864    0.7891 Br      1  LIG1        0.0000
     14 BR          4.3922   -2.4638   -0.4731 Br      1  LIG1        0.0000
     15 H           1.6625    0.7785   -1.0377 H       1  LIG1        0.0000
     16 H           3.3081    1.0050   -2.6430 H       1  LIG1        0.0000
     17 C           1.0109   12.9236    2.0374 C.ar    2  LIG2        0.0000
     18 H           1.2285   13.1572    1.1642 H       2  LIG2        0.0000
     19 C           2.0552   12.6433    2.9162 C.ar    2  LIG2        0.0000
     20 H           2.9386   12.6900    2.6308 H       2  LIG2        0.0000
     21 C           1.7614   12.3050    4.1874 C.ar    2  LIG2        0.0000
     22 H           2.4445   12.1309    4.7938 H       2  LIG2        0.0000
     23 C           0.4196   12.2159    4.5911 C.ar    2  LIG2        0.0000
     24 C          -0.0097   11.8620    5.8940 C.ar    2  LIG2        0.0000
     25 H           0.6102   11.6581    6.5571 H       2  LIG2        0.0000
     26 C          -1.3389   11.8238    6.1566 C.ar    2  LIG2        0.0000
     27 H          -1.6460   11.5916    7.0022 H       2  LIG2        0.0000
     28 C          -2.2330   12.1408    5.1416 C.ar    2  LIG2        0.0000
     29 H          -3.1400   12.1125    5.3435 H       2  LIG2        0.0000
     30 C          -0.5637   12.5131    3.6345 C.ar    2  LIG2        0.0000
     31 N          -1.8920   12.4749    3.9174 N.ar    2  LIG2        0.0000
     32 N          -0.2614   12.8783    2.3600 N.ar    2  LIG2        0.0000
@<TRIPOS>BOND
     1    16    11    1
     2    11    10    1
     3    15    12    1
     4    10    12    1
     5    10     1    1
     6    14     9    1
     7     1     9   ar
     8     1     2   ar
     9     9     7   ar
    10    13     2    1
    11     2     3   ar
    12    18    17    1
    13     7     8    1
    14     7     5   ar
    15    17    32   ar
    16    17    19   ar
    17     3     5   ar
    18     3     4    1
    19     5     6    1
    20    32    30   ar
    21    20    19    1
    22    19    21   ar
    23    30    31   ar
    24    30    23   ar
    25    31    28   ar
    26    21    23   ar
    27    21    22    1
    28    23    24   ar
    29    28    29    1
    30    28    26   ar
    31    24    26   ar
    32    24    25    1
    33    26    27    1
