@<TRIPOS>MOLECULE
?
 19 17 0 0 0
SMALL
GASTEIGER

@<TRIPOS>ATOM
      1 C           2.3525   -0.0000   10.1576 C.2     1  LIG1        0.0000
      2 C           2.7042   -1.1814    9.5224 C.3     1  LIG1        0.0000
      3 H           2.4865   -1.9911    9.9243 H       1  LIG1        0.0000
      4 C           3.3650   -1.1956    8.3166 C.2     1  LIG1        0.0000
      5 H           3.5791   -2.0006    7.9042 H       1  LIG1        0.0000
      6 C           3.7026   -0.0000    7.7318 C.2     1  LIG1        0.0000
      7 C           0.0808   -0.0000    6.8765 C.2     2  LIG2        0.0000
      8 C           0.8123   -0.0000    5.6822 C.2     2  LIG2        0.0000
      9 C           0.1224    2.3865    6.8098 C.3     2  LIG2        0.0000
     10 H          -0.0860    3.2187    7.1689 H       2  LIG2        0.0000
     11 C           0.8460    2.2859    5.6174 C.2     2  LIG2        0.0000
     12 H           1.0980    3.0743    5.1945 H       2  LIG2        0.0000
     13 N           1.1948    1.1510    5.0555 N.2     2  LIG2        0.0000
     14 C          -0.2685   -1.2572    7.4251 C.3     2  LIG2        0.0000
     15 H          -0.7671   -1.3010    8.2090 H       2  LIG2        0.0000
     16 O           1.2634    1.1858   12.0730 O.3     1  LIG1        0.0000
     17 BR          4.6255   -0.0000    6.0714 Br      1  LIG1        0.0000
     18 B           1.5830   -0.0000   11.5386 B       1  LIG1        0.0000
     19 H           0.8525    1.1838   12.6577 H       1  LIG1        0.0000
@<TRIPOS>BOND
     1    13    11    2
     2    13     8    1
     3    12    11    1
     4    11     9    1
     5     8     7    2
     6    17     6    1
     7     9    10    1
     8     7    14    1
     9    14    15    1
    10     6     4    2
    11     5     4    1
    12     4     2    1
    13     2     3    1
    14     2     1    1
    15     1    18    2
    16    18    16    1
    17    16    19    1
