@<TRIPOS>MOLECULE
?
 73 77 0 0 0
SMALL
GASTEIGER

@<TRIPOS>ATOM
      1 BR          3.4887    7.0408   17.5487 Br      1  LIG1       -0.0499
      2 S           7.0776    7.2092   11.3734 S.O2    1  LIG1        0.0764
      3 O           4.8806    4.5023   10.8979 O.3     1  LIG1       -0.4443
      4 O           7.9278    8.3554   11.5538 O.2     1  LIG1       -0.1497
      5 O           7.6729    5.9007   11.3196 O.2     1  LIG1       -0.1497
      6 O           2.6090    4.6777   11.1098 O.2     1  LIG1       -0.2258
      7 N           4.0367    5.7422   12.5445 N.am    1  LIG1       -0.2154
      8 N           5.9934    7.2181   12.6157 N.pl3   1  LIG1       -0.1807
      9 C           4.1151    4.1633    8.5771 C.3     1  LIG1       -0.0253
     10 H           3.2030    4.3464    8.8173 H       1  LIG1        0.0268
     11 H           4.1341    3.5578    7.8319 H       1  LIG1        0.0268
     12 H           4.5532    4.9819    8.3350 H       1  LIG1        0.0268
     13 C           4.8330    3.5327    9.7609 C.3     1  LIG1        0.1068
     14 C           3.7382    4.9340   11.4638 C.2     1  LIG1        0.4092
     15 C           5.3904    5.9450   13.1053 C.3     1  LIG1        0.1318
     16 H           5.9668    5.1889   12.8700 H       1  LIG1        0.0741
     17 C           6.1389    7.4546    9.8831 C.ar    1  LIG1        0.1088
     18 C           6.8504    7.4006    8.6872 C.ar    1  LIG1       -0.0348
     19 H           7.7626    7.2197    8.6874 H       1  LIG1        0.0637
     20 C           6.1727    7.6230    7.4922 C.ar    1  LIG1       -0.0570
     21 H           6.6425    7.5943    6.6912 H       1  LIG1        0.0621
     22 C           4.7918    7.8898    7.4716 C.ar    1  LIG1       -0.0503
     23 C           4.0877    8.1292    6.1589 C.3     1  LIG1       -0.0397
     24 H           3.1407    8.1723    6.3063 H       1  LIG1        0.0278
     25 H           4.2851    7.4100    5.5551 H       1  LIG1        0.0278
     26 H           4.3907    8.9585    5.7800 H       1  LIG1        0.0278
     27 C           4.7760    7.7259    9.8921 C.ar    1  LIG1       -0.0348
     28 H           4.3094    7.7666   10.6952 H       1  LIG1        0.0637
     29 C           4.1141    7.9366    8.6754 C.ar    1  LIG1       -0.0570
     30 H           3.2009    8.1112    8.6781 H       1  LIG1        0.0621
     31 C           4.1742    2.2366   10.2304 C.3     1  LIG1       -0.0253
     32 H           4.6271    1.9135   11.0129 H       1  LIG1        0.0268
     33 H           4.2291    1.5796    9.5337 H       1  LIG1        0.0268
     34 H           3.2526    2.4054   10.4402 H       1  LIG1        0.0268
     35 C           6.3068    3.3161    9.4514 C.3     1  LIG1       -0.0253
     36 H           6.6931    4.1394    9.1418 H       1  LIG1        0.0268
     37 H           6.3954    2.6459    8.7709 H       1  LIG1        0.0268
     38 H           6.7618    3.0277   10.2455 H       1  LIG1        0.0268
     39 C           3.0679    6.1893   13.4795 C.ar    1  LIG1        0.0463
     40 C           1.7134    6.4156   13.2321 C.ar    1  LIG1       -0.0398
     41 H           1.3450    6.2815   12.3901 H       1  LIG1        0.0636
     42 C           0.9364    6.8523   14.3049 C.ar    1  LIG1       -0.0589
     43 H           0.0317    7.0234   14.1730 H       1  LIG1        0.0618
     44 C           1.4843    7.0366   15.5581 C.ar    1  LIG1       -0.0474
     45 H           0.9491    7.3226   16.2620 H       1  LIG1        0.0629
     46 C           2.8493    6.7913   15.7672 C.ar    1  LIG1        0.0235
     47 C           3.6601    6.3783   14.7236 C.ar    1  LIG1       -0.0011
     48 C           5.1571    5.9787   14.6464 C.3     1  LIG1        0.0492
     49 C           5.3725    4.5558   15.2643 C.3     1  LIG1       -0.0211
     50 H           6.2888    4.2830   15.1004 H       1  LIG1        0.0317
     51 H           5.2532    4.6145   16.2249 H       1  LIG1        0.0317
     52 C           4.4508    3.4920   14.7294 C.2     1  LIG1       -0.0901
     53 H           3.5440    3.5841   14.9126 H       1  LIG1        0.0567
     54 C           4.8203    2.4437   14.0239 C.2     1  LIG1       -0.1026
     55 H           5.7187    2.3144   13.8183 H       1  LIG1        0.0532
     56 H           4.1837    1.8321   13.7325 H       1  LIG1        0.0532
     57 C           6.1009    6.9995   15.3378 C.3     1  LIG1        0.0170
     58 H           5.8623    7.0378   16.2875 H       1  LIG1        0.0402
     59 C           7.5620    6.6058   15.2374 C.2     1  LIG1       -0.0827
     60 H           7.9441    6.5364   14.3932 H       1  LIG1        0.0573
     61 C           8.3147    6.3593   16.2898 C.2     1  LIG1       -0.1020
     62 H           7.9536    6.4227   17.1453 H       1  LIG1        0.0532
     63 H           9.2068    6.1211   16.1785 H       1  LIG1        0.0532
     64 C           5.8370    8.3625   14.7313 C.ar    1  LIG1       -0.0169
     65 C           5.7652    8.4451   13.3457 C.ar    1  LIG1        0.0572
     66 C           5.5213    9.6562   12.7096 C.ar    1  LIG1       -0.0387
     67 H           5.4717    9.6981   11.7826 H       1  LIG1        0.0637
     68 C           5.3513   10.8062   13.4772 C.ar    1  LIG1       -0.0599
     69 H           5.2141   11.6271   13.0601 H       1  LIG1        0.0618
     70 C           5.3883   10.7296   14.8572 C.ar    1  LIG1       -0.0614
     71 H           5.2563   11.4967   15.3670 H       1  LIG1        0.0618
     72 C           5.6216    9.5138   15.4878 C.ar    1  LIG1       -0.0562
     73 H           5.6353    9.4671   16.4173 H       1  LIG1        0.0621
@<TRIPOS>BOND
     1    25    23    1
     2    26    23    1
     3    23    24    1
     4    23    22    1
     5    21    20    1
     6    22    20   ar
     7    22    29   ar
     8    20    18   ar
     9    11     9    1
    10    12     9    1
    11     9    10    1
    12     9    13    1
    13    29    30    1
    14    29    27   ar
    15    18    19    1
    16    18    17   ar
    17    37    35    1
    18    36    35    1
    19    35    13    1
    20    35    38    1
    21    33    31    1
    22    13    31    1
    23    13     3    1
    24    17    27   ar
    25    17     2    1
    26    27    28    1
    27    31    34    1
    28    31    32    1
    29     3    14    1
    30     6    14    2
    31     5     2    2
    32     2     4    2
    33     2     8    1
    34    14     7   am
    35    67    66    1
    36    41    40    1
    37     7    15    1
    38     7    39    1
    39     8    15    1
    40     8    65    1
    41    66    65   ar
    42    66    68   ar
    43    16    15    1
    44    69    68    1
    45    15    48    1
    46    40    39   ar
    47    40    42   ar
    48    65    64   ar
    49    68    70   ar
    50    39    47   ar
    51    56    54    1
    52    55    54    1
    53    54    52    2
    54    43    42    1
    55    42    44   ar
    56    60    59    1
    57    48    47    1
    58    48    49    1
    59    48    57    1
    60    47    46   ar
    61    52    53    1
    62    52    49    1
    63    64    57    1
    64    64    72   ar
    65    70    71    1
    66    70    72   ar
    67    50    49    1
    68    59    57    1
    69    59    61    2
    70    49    51    1
    71    57    58    1
    72    72    73    1
    73    44    46   ar
    74    44    45    1
    75    46     1    1
    76    63    61    1
    77    61    62    1
