@<TRIPOS>MOLECULE
4125475.cif
 28 29 0 0 0
SMALL
GASTEIGER

@<TRIPOS>ATOM
      1 C           1.9132    7.8139   -1.0805 C.ar    1  LIG1        0.0223
      2 C           2.7093    8.9270   -1.3572 C.ar    1  LIG1       -0.0509
      3 H           3.0483    9.4549   -0.6433 H       1  LIG1        0.0625
      4 C           3.0060    9.2652   -2.6635 C.ar    1  LIG1       -0.0611
      5 H           3.5735   10.0045   -2.8480 H       1  LIG1        0.0618
      6 C           2.4740    8.5211   -3.7042 C.ar    1  LIG1       -0.0617
      7 H           2.6637    8.7648   -4.6016 H       1  LIG1        0.0618
      8 C           1.6655    7.4213   -3.4464 C.ar    1  LIG1       -0.0611
      9 H           1.2967    6.9215   -4.1645 H       1  LIG1        0.0618
     10 C           1.3979    7.0573   -2.1371 C.ar    1  LIG1       -0.0509
     11 H           0.8637    6.2935   -1.9563 H       1  LIG1        0.0625
     12 C           1.5610    7.5190    0.3329 C.2     1  LIG1        0.1931
     13 C           1.4176    6.1209    0.7929 C.ar    1  LIG1        0.0227
     14 C           2.1241    5.0744    0.2002 C.ar    1  LIG1       -0.0475
     15 H           2.6478    5.2386   -0.5745 H       1  LIG1        0.0626
     16 C           2.0675    3.7995    0.7316 C.ar    1  LIG1       -0.0192
     17 H           2.5677    3.0960    0.3366 H       1  LIG1        0.0654
     18 C           1.2746    3.5509    1.8487 C.ar    1  LIG1        0.1198
     19 C           0.5305    4.5798    2.4564 C.ar    1  LIG1       -0.0084
     20 C           0.6289    5.8506    1.9212 C.ar    1  LIG1       -0.0445
     21 H           0.1481    6.5617    2.3299 H       1  LIG1        0.0628
     22 C          -0.3437    4.2754    3.6474 C.3     1  LIG1       -0.0362
     23 H          -0.8441    5.0799    3.9002 H       1  LIG1        0.0279
     24 H           0.2161    3.9907    4.3989 H       1  LIG1        0.0279
     25 H          -0.9718    3.5589    3.4173 H       1  LIG1        0.0279
     26 O           1.4025    8.4470    1.1339 O.2     1  LIG1       -0.2867
     27 O           1.1539    2.3162    2.3972 O.3     1  LIG1       -0.5065
     28 H           1.5740    1.7598    1.9298 H       1  LIG1        0.2921
@<TRIPOS>BOND
     1     7     6    1
     2     9     8    1
     3     6     8   ar
     4     6     4   ar
     5     8    10   ar
     6     5     4    1
     7     4     2   ar
     8    10    11    1
     9    10     1   ar
    10     2     1   ar
    11     2     3    1
    12     1    12    1
    13    15    14    1
    14    14    16   ar
    15    14    13   ar
    16    12    13    1
    17    12    26    2
    18    17    16    1
    19    16    18   ar
    20    13    20   ar
    21    18    27    1
    22    18    19   ar
    23    20    21    1
    24    20    19   ar
    25    28    27    1
    26    19    22    1
    27    25    22    1
    28    22    23    1
    29    22    24    1
