@<TRIPOS>MOLECULE
C11 H12 O3
 78 78 0 0 0
SMALL
GASTEIGER

@<TRIPOS>ATOM
      1 O           4.3261    7.1531   12.0126 O.3     1  LIG1       -0.3738
      2 H           4.1357    6.3367   11.9592 H       1  LIG1        0.2113
      3 O           1.8641    6.3216   11.4386 O.2     1  LIG1       -0.2474
      4 O           0.9116    7.9500   12.6466 O.3     1  LIG1       -0.4784
      5 H           0.1991    7.6152   12.3535 H       1  LIG1        0.2952
      6 C           3.2703    7.8446   12.6728 C.3     1  LIG1        0.1777
      7 C           3.3252    7.6926   14.1802 C.2     1  LIG1       -0.0418
      8 H           2.6670    8.1422   14.6957 H       1  LIG1        0.0606
      9 C           4.2333    6.9716   14.8256 C.2     1  LIG1       -0.0553
     10 H           4.8289    6.4576   14.2945 H       1  LIG1        0.0621
     11 C           4.4073    6.8928   16.2891 C.ar    1  LIG1       -0.0252
     12 C           3.4431    7.3336   17.1942 C.ar    1  LIG1       -0.0546
     13 H           2.6110    7.6628   16.8756 H       1  LIG1        0.0623
     14 C           3.6925    7.2952   18.5666 C.ar    1  LIG1       -0.0612
     15 H           3.0279    7.5915   19.1761 H       1  LIG1        0.0618
     16 C           4.9078    6.8256   19.0446 C.ar    1  LIG1       -0.0617
     17 H           5.0841    6.8226   19.9784 H       1  LIG1        0.0618
     18 C           5.8637    6.3615   18.1538 C.ar    1  LIG1       -0.0612
     19 H           6.6901    6.0235   18.4780 H       1  LIG1        0.0618
     20 C           5.6120    6.3922   16.7865 C.ar    1  LIG1       -0.0546
     21 H           6.2696    6.0689   16.1822 H       1  LIG1        0.0623
     22 C           3.4104    9.3165   12.2830 C.3     1  LIG1       -0.0218
     23 H           4.2730    9.6584   12.5993 H       1  LIG1        0.0266
     24 H           2.6846    9.8333   12.6921 H       1  LIG1        0.0266
     25 H           3.3631    9.4013   11.3076 H       1  LIG1        0.0266
     26 C           1.9359    7.2794   12.1749 C.2     1  LIG1        0.3405
     27 O           4.3787   13.8934   12.9982 O.3     2  LIG2       -0.3738
     28 H           4.1895   13.6388   12.2213 H       2  LIG2        0.2113
     29 O           1.9265   13.2992   12.1508 O.2     2  LIG2       -0.2474
     30 O           0.9688   14.7644   13.5545 O.3     2  LIG2       -0.4784
     31 H           0.2581   14.4314   13.2556 H       2  LIG2        0.2952
     32 C           3.3322   14.7292   13.4926 C.3     2  LIG2        0.1777
     33 C           3.3690   14.7264   15.0048 C.2     2  LIG2       -0.0418
     34 H           2.7284   15.2586   15.4610 H       2  LIG2        0.0606
     35 C           4.2292   14.0359   15.7386 C.2     2  LIG2       -0.0553
     36 H           4.8406   13.4768   15.2755 H       2  LIG2        0.0621
     37 C           4.3238   14.0575   17.2128 C.ar    2  LIG2       -0.0252
     38 C           3.3263   14.5983   18.0305 C.ar    2  LIG2       -0.0546
     39 H           2.5251   14.9324   17.6432 H       2  LIG2        0.0623
     40 C           3.5045   14.6487   19.4117 C.ar    2  LIG2       -0.0612
     41 H           2.8247   15.0188   19.9622 H       2  LIG2        0.0618
     42 C           4.6672   14.1616   19.9880 C.ar    2  LIG2       -0.0617
     43 H           4.7916   14.2154   20.9292 H       2  LIG2        0.0618
     44 C           5.6418   13.5986   19.1935 C.ar    2  LIG2       -0.0612
     45 H           6.4296   13.2457   19.5888 H       2  LIG2        0.0618
     46 C           5.4760   13.5450   17.8090 C.ar    2  LIG2       -0.0546
     47 H           6.1534   13.1571   17.2675 H       2  LIG2        0.0623
     48 C           3.4881   16.1577   12.9520 C.3     2  LIG2       -0.0218
     49 H           4.3547   16.5198   13.2301 H       2  LIG2        0.0266
     50 H           2.7692   16.7207   13.3066 H       2  LIG2        0.0266
     51 H           3.4385   16.1441   11.9732 H       2  LIG2        0.0266
     52 C           1.9966   14.1750   12.9970 C.2     2  LIG2        0.3405
     53 O           1.4080   12.2822    9.6397 O.3     3  LIG3       -0.3738
     54 H           1.2848   12.5870   10.4124 H       3  LIG3        0.2113
     55 O          -1.0453   13.0163   10.3716 O.2     3  LIG3       -0.2474
     56 O          -1.9984   11.3337    9.2263 O.3     3  LIG3       -0.4784
     57 H          -2.7108   11.7187    9.4500 H       3  LIG3        0.2952
     58 C           0.3662   11.3700    9.3186 C.3     3  LIG3        0.1777
     59 C           0.4438   11.0343    7.8467 C.2     3  LIG3       -0.0418
     60 H          -0.1974   10.4337    7.4858 H       3  LIG3        0.0606
     61 C           1.3630   11.5380    7.0366 C.2     3  LIG3       -0.0553
     62 H           1.9493   12.1853    7.4093 H       3  LIG3        0.0621
     63 C           1.5727   11.1983    5.6121 C.ar    3  LIG3       -0.0252
     64 C           0.6237   10.5266    4.8356 C.ar    3  LIG3       -0.0546
     65 H          -0.2161   10.2912    5.2132 H       3  LIG3        0.0623
     66 C           0.9063   10.2024    3.5124 C.ar    3  LIG3       -0.0612
     67 H           0.2546    9.7534    2.9869 H       3  LIG3        0.0618
     68 C           2.1298   10.5300    2.9537 C.ar    3  LIG3       -0.0617
     69 H           2.3219   10.2933    2.0547 H       3  LIG3        0.0618
     70 C           3.0729   11.2047    3.7123 C.ar    3  LIG3       -0.0612
     71 H           3.9132   11.4337    3.3324 H       3  LIG3        0.0618
     72 C           2.7897   11.5483    5.0321 C.ar    3  LIG3       -0.0546
     73 H           3.4338   12.0254    5.5425 H       3  LIG3        0.0623
     74 C           0.5046   10.0812   10.1451 C.3     3  LIG3       -0.0218
     75 H           1.3578    9.6476    9.9347 H       3  LIG3        0.0266
     76 H          -0.2330    9.4726    9.9278 H       3  LIG3        0.0266
     77 H           0.4771   10.2998   11.0989 H       3  LIG3        0.0266
     78 C          -0.9717   12.0116    9.6861 C.2     3  LIG3        0.3405
@<TRIPOS>BOND
     1    69    68    1
     2    68    66   ar
     3    68    70   ar
     4    67    66    1
     5    71    70    1
     6    66    64   ar
     7    70    72   ar
     8    64    65    1
     9    64    63   ar
    10    72    73    1
    11    72    63   ar
    12    63    61    1
    13    61    62    1
    14    61    59    2
    15    60    59    1
    16    59    58    1
    17    56    57    1
    18    56    78    1
    19    58    53    1
    20    58    78    1
    21    58    74    1
    22    53    54    1
    23    78    55    2
    24    76    74    1
    25    75    74    1
    26    74    77    1
    27    25    22    1
    28     3    26    2
    29     2     1    1
    30    51    48    1
    31     1     6    1
    32    29    52    2
    33    26     4    1
    34    26     6    1
    35    28    27    1
    36    22    23    1
    37    22     6    1
    38    22    24    1
    39     5     4    1
    40     6     7    1
    41    48    49    1
    42    48    50    1
    43    48    32    1
    44    52    32    1
    45    52    30    1
    46    27    32    1
    47    31    30    1
    48    32    33    1
    49     7     8    1
    50     7     9    2
    51    10     9    1
    52     9    11    1
    53    33    34    1
    54    33    35    2
    55    36    35    1
    56    35    37    1
    57    21    20    1
    58    11    20   ar
    59    11    12   ar
    60    20    18   ar
    61    13    12    1
    62    12    14   ar
    63    37    46   ar
    64    37    38   ar
    65    47    46    1
    66    39    38    1
    67    46    44   ar
    68    38    40   ar
    69    18    19    1
    70    18    16   ar
    71    14    16   ar
    72    14    15    1
    73    16    17    1
    74    44    45    1
    75    44    42   ar
    76    40    41    1
    77    40    42   ar
    78    42    43    1
