@<TRIPOS>MOLECULE
4125086.cif
 104 108 0 0 0
SMALL
GASTEIGER

@<TRIPOS>ATOM
      1 S           9.9806   11.7386    8.8022 S.O2    1  LIG1        0.1926
      2 S           4.2271   13.9039    8.0921 S.O2    2  LIG2        0.1926
      3 S           1.9648    3.2037   12.4450 S.O2    3  LIG3        0.1926
      4 S           7.6245    5.1491   11.7132 S.O2    4  LIG4        0.1926
      5 O          10.3452   12.5634   10.1121 O.3     1  LIG1       -0.3333
      6 O           8.7466   11.0714    9.0086 O.2     1  LIG1       -0.1189
      7 O          11.1650   10.9991    8.5225 O.2     1  LIG1       -0.1189
      8 O           3.3176   14.6724    9.1523 O.3     2  LIG2       -0.3333
      9 O           3.3587   13.7037    6.9802 O.2     2  LIG2       -0.1189
     10 O           5.4441   14.6238    7.9384 O.2     2  LIG2       -0.1189
     11 O           1.1215    2.4162   11.3489 O.3     3  LIG3       -0.3333
     12 O           1.0479    3.3732   13.5235 O.2     3  LIG3       -0.1189
     13 O           3.1907    2.5119   12.6507 O.2     3  LIG3       -0.1189
     14 O           7.9909    4.3149   10.4084 O.3     4  LIG4       -0.3333
     15 O           8.8026    5.9051   11.9814 O.2     4  LIG4       -0.1189
     16 O           6.3795    5.8029   11.5038 O.2     4  LIG4       -0.1189
     17 N           9.7722   12.8753    7.6831 N.3     1  LIG1       -0.1491
     18 H          10.4967   13.2184    7.5277 H       1  LIG1        0.1520
     19 N           4.5490   12.4977    8.7848 N.3     2  LIG2       -0.1491
     20 H           3.7881   11.9512    8.8029 H       2  LIG2        0.1520
     21 N           2.2750    4.6263   11.7748 N.3     3  LIG3       -0.1491
     22 H           1.5344    5.0152   11.6961 H       3  LIG3        0.1520
     23 N           7.4325    4.0203   12.8393 N.3     4  LIG4       -0.1491
     24 H           8.1902    3.6778   13.0535 H       4  LIG4        0.1520
     25 C           9.4867   13.6534   10.4081 C.ar    1  LIG1        0.1629
     26 C           9.5053   14.0420   11.7351 C.ar    1  LIG1       -0.0167
     27 H          10.0530   13.5861   12.3638 H       1  LIG1        0.0655
     28 C           8.7150   15.1032   12.1335 C.ar    1  LIG1       -0.0582
     29 H           8.7192   15.3883   13.0398 H       1  LIG1        0.0619
     30 C           7.9145   15.7515   11.2035 C.ar    1  LIG1       -0.0612
     31 H           7.3664   16.4782   11.4753 H       1  LIG1        0.0618
     32 C           7.9116   15.3425    9.8757 C.ar    1  LIG1       -0.0532
     33 H           7.3500   15.7878    9.2526 H       1  LIG1        0.0622
     34 C           8.7178   14.2876    9.4386 C.ar    1  LIG1        0.0195
     35 C           8.6729   13.8152    7.9828 C.3     1  LIG1        0.0781
     36 H           7.8123   13.3220    7.8527 H       1  LIG1        0.0572
     37 C           8.7055   14.9421    6.9828 C.2     1  LIG1       -0.0653
     38 H           8.1108   15.6675    7.1314 H       1  LIG1        0.0588
     39 C           9.4865   15.0145    5.9180 C.2     1  LIG1       -0.0892
     40 H          10.0914   14.2983    5.7603 H       1  LIG1        0.0567
     41 C           9.4784   16.1514    4.9457 C.3     1  LIG1       -0.0468
     42 H           8.8070   16.8109    5.2200 H       1  LIG1        0.0272
     43 H           9.2607   15.8146    4.0518 H       1  LIG1        0.0272
     44 H          10.3625   16.5735    4.9293 H       1  LIG1        0.0272
     45 C           3.7590   14.6439   10.4975 C.ar    2  LIG2        0.1629
     46 C           3.2196   15.6272   11.3055 C.ar    2  LIG2       -0.0167
     47 H           2.6233   16.2726   10.9447 H       2  LIG2        0.0655
     48 C           3.5573   15.6616   12.6402 C.ar    2  LIG2       -0.0582
     49 H           3.1904   16.3311   13.2057 H       2  LIG2        0.0619
     50 C           4.4353   14.7157   13.1606 C.ar    2  LIG2       -0.0612
     51 H           4.6721   14.7396   14.0805 H       2  LIG2        0.0618
     52 C           4.9639   13.7381   12.3323 C.ar    2  LIG2       -0.0532
     53 H           5.5647   13.0963   12.6943 H       2  LIG2        0.0622
     54 C           4.6301   13.6754   10.9739 C.ar    2  LIG2        0.0195
     55 C           5.2400   12.5883   10.1062 C.3     2  LIG2        0.0781
     56 H           6.2000   12.8138    9.9451 H       2  LIG2        0.0572
     57 C           5.1730   11.2380   10.7608 C.2     2  LIG2       -0.0653
     58 H           4.3218   10.8913   10.9981 H       2  LIG2        0.0588
     59 C           6.2385   10.5122   11.0203 C.2     2  LIG2       -0.0892
     60 H           7.0825   10.8696   10.7678 H       2  LIG2        0.0567
     61 C           6.2303    9.1714   11.6800 C.3     2  LIG2       -0.0468
     62 H           5.3100    8.9304   11.9168 H       2  LIG2        0.0272
     63 H           6.7790    9.2029   12.4913 H       2  LIG2        0.0272
     64 H           6.5949    8.5024   11.0639 H       2  LIG2        0.0272
     65 C           1.6167    2.4583   10.0208 C.ar    3  LIG3        0.1629
     66 C           1.1728    1.4345    9.2122 C.ar    3  LIG3       -0.0167
     67 H           0.6011    0.7590    9.5557 H       3  LIG3        0.0655
     68 C           1.5774    1.4114    7.8879 C.ar    3  LIG3       -0.0582
     69 H           1.2720    0.7205    7.3124 H       3  LIG3        0.0619
     70 C           2.4218    2.3887    7.3983 C.ar    3  LIG3       -0.0612
     71 H           2.7001    2.3672    6.4897 H       3  LIG3        0.0618
     72 C           2.8655    3.4028    8.2363 C.ar    3  LIG3       -0.0532
     73 H           3.4510    4.0690    7.8952 H       3  LIG3        0.0622
     74 C           2.4635    3.4620    9.5761 C.ar    3  LIG3        0.0195
     75 C           3.0004    4.5744   10.4705 C.3     3  LIG3        0.0781
     76 H           3.9663    4.3916   10.6540 H       3  LIG3        0.0572
     77 C           2.8899    5.9218    9.8128 C.2     3  LIG3       -0.0653
     78 H           2.0205    6.2623    9.6407 H       3  LIG3        0.0588
     79 C           3.9198    6.6590    9.4611 C.2     3  LIG3       -0.0892
     80 H           4.7852    6.3258    9.6654 H       3  LIG3        0.0567
     81 C           3.8354    7.9808    8.7653 C.3     3  LIG3       -0.0468
     82 H           2.8949    8.2115    8.6150 H       3  LIG3        0.0272
     83 H           4.3008    7.9273    7.9048 H       3  LIG3        0.0272
     84 H           4.2569    8.6696    9.3212 H       3  LIG3        0.0272
     85 C           7.1126    3.2341   10.1207 C.ar    4  LIG4        0.1629
     86 C           7.1162    2.8343    8.7945 C.ar    4  LIG4       -0.0167
     87 H           7.6897    3.2549    8.1639 H       4  LIG4        0.0655
     88 C           6.2672    1.8096    8.4043 C.ar    4  LIG4       -0.0582
     89 H           6.2575    1.5196    7.5003 H       4  LIG4        0.0619
     90 C           5.4369    1.2107    9.3323 C.ar    4  LIG4       -0.0612
     91 H           4.8416    0.5216    9.0620 H       4  LIG4        0.0618
     92 C           5.4711    1.6151   10.6573 C.ar    4  LIG4       -0.0532
     93 H           4.8985    1.1903   11.2847 H       4  LIG4        0.0622
     94 C           6.3279    2.6328   11.0948 C.ar    4  LIG4        0.0195
     95 C           6.3277    3.0782   12.5555 C.3     4  LIG4        0.0781
     96 H           5.4698    3.5658   12.7176 H       4  LIG4        0.0572
     97 C           6.3746    1.9198   13.5203 C.2     4  LIG4       -0.0653
     98 H           5.7310    1.2337   13.3894 H       4  LIG4        0.0588
     99 C           7.2103    1.7562   14.5220 C.2     4  LIG4       -0.0892
    100 H           7.8693    2.4257   14.6674 H       4  LIG4        0.0567
    101 C           7.1885    0.5749   15.4524 C.3     4  LIG4       -0.0468
    102 H           6.4197    0.0067   15.2405 H       4  LIG4        0.0272
    103 H           7.1171    0.8894   16.3772 H       4  LIG4        0.0272
    104 H           8.0155    0.0602   15.3447 H       4  LIG4        0.0272
@<TRIPOS>BOND
     1    43    41    1
     2    44    41    1
     3    41    42    1
     4    41    39    1
     5    40    39    1
     6    39    37    2
     7    71    70    1
     8     9     2    2
     9    37    38    1
    10    37    35    1
    11    69    68    1
    12    70    68   ar
    13    70    72   ar
    14    89    88    1
    15    18    17    1
    16    17    35    1
    17    17     1    1
    18    36    35    1
    19    68    66   ar
    20    73    72    1
    21    83    81    1
    22    10     2    2
    23    35    34    1
    24     2    19    1
    25     2     8    1
    26    87    86    1
    27    72    74   ar
    28    88    86   ar
    29    88    90   ar
    30     7     1    2
    31    82    81    1
    32    81    84    1
    33    81    79    1
    34    19    20    1
    35    19    55    1
    36    86    85   ar
    37     1     6    2
    38     1     5    1
    39    91    90    1
    40     8    45    1
    41    66    67    1
    42    66    65   ar
    43    33    32    1
    44    90    92   ar
    45    34    32   ar
    46    34    25   ar
    47    79    80    1
    48    79    77    2
    49    74    65   ar
    50    74    75    1
    51    78    77    1
    52    77    75    1
    53    32    30   ar
    54    56    55    1
    55    65    11    1
    56    55    57    1
    57    55    54    1
    58     5    25    1
    59    85    14    1
    60    85    94   ar
    61    25    26   ar
    62    14     4    1
    63    75    76    1
    64    75    21    1
    65    45    54   ar
    66    45    46   ar
    67    92    94   ar
    68    92    93    1
    69    57    58    1
    70    57    59    2
    71    60    59    1
    72    47    46    1
    73    54    52   ar
    74    59    61    1
    75    64    61    1
    76    94    95    1
    77    30    31    1
    78    30    28   ar
    79    46    48   ar
    80    11     3    1
    81    16     4    2
    82    61    62    1
    83    61    63    1
    84    22    21    1
    85     4    15    2
    86     4    23    1
    87    26    28   ar
    88    26    27    1
    89    21     3    1
    90    28    29    1
    91    52    53    1
    92    52    50   ar
    93     3    13    2
    94     3    12    2
    95    95    96    1
    96    95    23    1
    97    95    97    1
    98    48    50   ar
    99    48    49    1
   100    23    24    1
   101    50    51    1
   102    98    97    1
   103    97    99    2
   104    99   100    1
   105    99   101    1
   106   102   101    1
   107   104   101    1
   108   101   103    1
