@<TRIPOS>MOLECULE
?
 78 81 0 0 0
SMALL
GASTEIGER

@<TRIPOS>ATOM
      1 CL         14.4506    5.3400   -5.0927 Cl      1  LIG1        0.0000
      2 O          14.5099    7.2650   -1.9457 O.2     2  LIG2       -0.2507
      3 O           9.2830    9.5869   -3.5180 O.2     2  LIG2       -0.2507
      4 O          13.4730    5.9163    0.9800 O.2     2  LIG2       -0.2522
      5 O           8.3144    8.6719   -0.1795 O.2     2  LIG2       -0.2522
      6 O           8.3852   10.4821    2.5057 O.2     2  LIG2       -0.2523
      7 O          13.7110    8.1666    3.5890 O.2     2  LIG2       -0.2523
      8 N          13.3689    8.1903   -3.7195 N.am    2  LIG2       -0.1723
      9 N          12.4373    6.5539   -2.5492 N.am    2  LIG2       -0.2458
     10 N          10.3324    7.5878   -3.0709 N.am    2  LIG2       -0.2458
     11 N          11.2365    8.9759   -4.5354 N.am    2  LIG2       -0.1723
     12 N          11.6607    5.7869   -0.4036 N.am    2  LIG2       -0.2471
     13 N          11.3388    6.0903    1.7627 N.am    2  LIG2       -0.2471
     14 N           9.2211    7.1467    1.2862 N.am    2  LIG2       -0.2471
     15 N           9.5874    6.8945   -0.8786 N.am    2  LIG2       -0.2471
     16 N          11.5113    7.5988    3.6497 N.am    2  LIG2       -0.2471
     17 N           9.3382    8.5351    3.2644 N.am    2  LIG2       -0.2471
     18 N          12.1452    9.5510    4.5079 N.am    2  LIG2       -0.2618
     19 N           9.9396   10.4456    4.1866 N.am    2  LIG2       -0.2618
     20 N           9.3790   11.3837    0.0057 N.3     3  LIG3       -0.3140
     21 H           9.2193   11.2762    0.8445 H       3  LIG3        0.1220
     22 N           7.1462   13.1593    0.6791 N.2     3  LIG3        0.1219
     23 N           6.7563   12.9729    1.8190 N.2     3  LIG3        0.2543
     24 N           6.4266   12.9384    2.8864 N.2     3  LIG3        0.3543
     25 C          13.5369    7.3234   -2.6704 C.2     2  LIG2        0.3260
     26 C          10.1946    8.8073   -3.6799 C.2     2  LIG2        0.3260
     27 C          12.1707    7.8884   -4.4595 C.3     2  LIG2        0.1682
     28 H          12.3743    7.5216   -5.3465 H       2  LIG2        0.0780
     29 C          11.4674    6.8516   -3.5604 C.3     2  LIG2        0.1388
     30 H          11.2003    6.0519   -4.0599 H       2  LIG2        0.0750
     31 C          12.3511    5.4595   -1.6143 C.3     2  LIG2        0.0903
     32 H          11.8966    4.7185   -2.0431 H       2  LIG2        0.0676
     33 H          13.2487    5.1664   -1.3922 H       2  LIG2        0.0676
     34 C           9.2847    6.9959   -2.2939 C.3     2  LIG2        0.0903
     35 H           9.1039    6.1077   -2.6392 H       2  LIG2        0.0676
     36 H           8.4788    7.5236   -2.4038 H       2  LIG2        0.0676
     37 C          12.2879    5.9347    0.7990 C.2     2  LIG2        0.3102
     38 C           8.9783    7.6716    0.0517 C.2     2  LIG2        0.3102
     39 C          10.2431    5.7564   -0.2850 C.3     2  LIG2        0.1358
     40 H           9.8678    4.9105   -0.6070 H       2  LIG2        0.0749
     41 C          10.0176    5.9469    1.2338 C.3     2  LIG2        0.1358
     42 H           9.5485    5.1830    1.6297 H       2  LIG2        0.0749
     43 C          11.6402    6.2387    3.1679 C.3     2  LIG2        0.0902
     44 H          12.5475    5.9343    3.3275 H       2  LIG2        0.0676
     45 H          11.0443    5.6680    3.6772 H       2  LIG2        0.0676
     46 C           8.5707    7.6159    2.4813 C.3     2  LIG2        0.0902
     47 H           7.7370    8.0438    2.2301 H       2  LIG2        0.0676
     48 H           8.3499    6.8487    3.0328 H       2  LIG2        0.0676
     49 C          12.5748    8.4067    3.8884 C.2     2  LIG2        0.3090
     50 C           9.1529    9.8889    3.2345 C.2     2  LIG2        0.3090
     51 C          10.3169    8.1278    4.2310 C.3     2  LIG2        0.1357
     52 H           9.9378    7.5195    4.9000 H       2  LIG2        0.0749
     53 C          10.7604    9.4750    4.8602 C.3     2  LIG2        0.1331
     54 H          10.6267    9.4907    5.8303 H       2  LIG2        0.0748
     55 C          13.0686   10.4093    5.2020 C.3     2  LIG2        0.0339
     56 H          13.9095    9.9386    5.3113 H       2  LIG2        0.0481
     57 H          12.7170   10.5930    6.0877 H       2  LIG2        0.0481
     58 C          10.0510   11.8717    4.3764 C.3     2  LIG2        0.0339
     59 H           9.2464   12.2958    4.0401 H       2  LIG2        0.0481
     60 H          10.1073   12.0585    5.3267 H       2  LIG2        0.0481
     61 C           7.0790   12.0283   -0.2457 C.3     3  LIG3        0.1349
     62 H           6.3665   12.1741   -0.8885 H       3  LIG3        0.0592
     63 H           6.8810   11.2163    0.2463 H       3  LIG3        0.0592
     64 C           8.3754   11.8760   -0.9618 C.3     3  LIG3        0.0222
     65 H           8.2798   11.2452   -1.6935 H       3  LIG3        0.0444
     66 H           8.6556   12.7293   -1.3284 H       3  LIG3        0.0444
     67 C          10.6696   11.1007   -0.6160 C.3     3  LIG3       -0.0040
     68 H          11.0492   11.9284   -0.9501 H       3  LIG3        0.0424
     69 H          10.5334   10.5104   -1.3724 H       3  LIG3        0.0424
     70 C          11.6307   10.4708    0.3257 C.3     3  LIG3       -0.0393
     71 H          11.7799   11.0677    1.0755 H       3  LIG3        0.0278
     72 H          11.2482    9.6476    0.6686 H       3  LIG3        0.0278
     73 O          12.2343    7.3558    6.7545 O.3     4  HOH4       -0.4105
     74 H          11.4950    7.0138    6.9190 H       0  HOH0        0.2052
     75 H          12.6863    6.6897    6.5319 H       0  HOH0        0.2052
     76 O           9.7049    3.8838   -3.6471 O.3     5  HOH5       -0.4105
     77 H           9.1186    3.3459   -3.4661 H       0  HOH0        0.2052
     78 H           9.3950    4.3491   -4.2644 H       0  HOH0        0.2052
@<TRIPOS>BOND
     1    28    27    1
     2    11    27    1
     3    11    26   am
     4    27     8    1
     5    27    29    1
     6    78    76    1
     7    30    29    1
     8     8    25   am
     9    26     3    2
    10    26    10   am
    11    76    77    1
    12    29    10    1
    13    29     9    1
    14    10    34    1
    15    25     9   am
    16    25     2    2
    17    35    34    1
    18     9    31    1
    19    36    34    1
    20    34    15    1
    21    32    31    1
    22    65    64    1
    23    31    33    1
    24    31    12    1
    25    69    67    1
    26    66    64    1
    27    64    61    1
    28    64    20    1
    29    68    67    1
    30    62    61    1
    31    15    39    1
    32    15    38   am
    33    67    20    1
    34    67    70    1
    35    40    39    1
    36    12    39    1
    37    12    37   am
    38    39    41    1
    39    61    63    1
    40    61    22    1
    41     5    38    2
    42    20    21    1
    43    38    14   am
    44    70    72    1
    45    70    71    1
    46    22    23    2
    47    37     4    2
    48    37    13   am
    49    41    14    1
    50    41    42    1
    51    41    13    1
    52    14    46    1
    53    13    43    1
    54    23    24    2
    55    47    46    1
    56    46    48    1
    57    46    17    1
    58     6    50    2
    59    43    44    1
    60    43    16    1
    61    43    45    1
    62    50    17   am
    63    50    19   am
    64    17    51    1
    65     7    49    2
    66    16    49   am
    67    16    51    1
    68    49    18   am
    69    59    58    1
    70    19    58    1
    71    19    53    1
    72    51    53    1
    73    51    52    1
    74    58    60    1
    75    18    53    1
    76    18    55    1
    77    53    54    1
    78    55    56    1
    79    55    57    1
    80    75    73    1
    81    73    74    1
