@<TRIPOS>MOLECULE
C13 H18 F N O2
 35 35 0 0 0
SMALL
GASTEIGER

@<TRIPOS>ATOM
      1 F           1.0164    6.7954   11.9211 F       1  LIG1       -0.2468
      2 O           2.5594    3.1973    9.1666 O.3     1  LIG1       -0.4447
      3 O           4.0613    4.9037    9.4191 O.2     1  LIG1       -0.2264
      4 N           1.8165    5.2303    9.6162 N.am    1  LIG1       -0.2718
      5 H           1.0310    4.8430    9.7028 H       1  LIG1        0.1527
      6 C           1.8427    7.3677    8.3507 C.ar    1  LIG1       -0.0247
      7 C           0.7758    7.1153    7.4818 C.ar    1  LIG1       -0.0567
      8 H           0.0929    6.5060    7.7351 H       1  LIG1        0.0621
      9 C           0.7136    7.7549    6.2489 C.ar    1  LIG1       -0.0614
     10 H          -0.0152    7.5854    5.6641 H       1  LIG1        0.0618
     11 C           1.7135    8.6411    5.8692 C.ar    1  LIG1       -0.0617
     12 H           1.6748    9.0680    5.0214 H       1  LIG1        0.0618
     13 C           2.7697    8.9015    6.7321 C.ar    1  LIG1       -0.0614
     14 H           3.4516    9.5111    6.4763 H       1  LIG1        0.0618
     15 C           2.8296    8.2713    7.9701 C.ar    1  LIG1       -0.0567
     16 H           3.5499    8.4590    8.5600 H       1  LIG1        0.0621
     17 C           1.9217    6.6834    9.7077 C.3     1  LIG1        0.0796
     18 H           2.8057    6.9061   10.1182 H       1  LIG1        0.0575
     19 C           2.9173    4.4749    9.3993 C.2     1  LIG1        0.4013
     20 C           3.5788    2.1403    8.9599 C.3     1  LIG1        0.1068
     21 C           4.3840    1.9384   10.2321 C.3     1  LIG1       -0.0253
     22 H           3.7741    1.7930   10.9848 H       1  LIG1        0.0268
     23 H           4.9308    2.7342   10.4024 H       1  LIG1        0.0268
     24 H           4.9673    1.1577   10.1286 H       1  LIG1        0.0268
     25 C           2.7139    0.9237    8.6717 C.3     1  LIG1       -0.0253
     26 H           2.1562    1.0985    7.8848 H       1  LIG1        0.0268
     27 H           2.1402    0.7400    9.4452 H       1  LIG1        0.0268
     28 H           3.2879    0.1486    8.4997 H       1  LIG1        0.0268
     29 C           4.4495    2.4608    7.7546 C.3     1  LIG1       -0.0253
     30 H           4.9936    3.2531    7.9462 H       1  LIG1        0.0268
     31 H           3.8792    2.6357    6.9775 H       1  LIG1        0.0268
     32 H           5.0369    1.6996    7.5645 H       1  LIG1        0.0268
     33 C           0.8316    7.2372   10.6040 C.3     1  LIG1        0.1126
     34 H           0.8522    8.2263   10.5799 H       1  LIG1        0.0637
     35 H          -0.0531    6.9386   10.2748 H       1  LIG1        0.0637
@<TRIPOS>BOND
     1    12    11    1
     2    10     9    1
     3    11     9   ar
     4    11    13   ar
     5     9     7   ar
     6    14    13    1
     7    13    15   ar
     8    31    29    1
     9     7     8    1
    10     7     6   ar
    11    32    29    1
    12    29    30    1
    13    29    20    1
    14    26    25    1
    15    15     6   ar
    16    15    16    1
    17     6    17    1
    18    28    25    1
    19    25    20    1
    20    25    27    1
    21    20     2    1
    22    20    21    1
    23     2    19    1
    24    19     3    2
    25    19     4   am
    26     4     5    1
    27     4    17    1
    28    17    18    1
    29    17    33    1
    30    24    21    1
    31    21    23    1
    32    21    22    1
    33    35    33    1
    34    34    33    1
    35    33     1    1
