@<TRIPOS>MOLECULE
4126205.cif
 74 76 0 0 0
SMALL
GASTEIGER

@<TRIPOS>ATOM
      1 C          31.7406    2.5172    3.3232 C.ar    1  LIG1       -0.0469
      2 H          31.1051    3.1357    3.6657 H       1  LIG1        0.0626
      3 C          33.0941    2.7272    3.5471 C.ar    1  LIG1       -0.0257
      4 H          33.3963    3.4740    4.0506 H       1  LIG1        0.0646
      5 C          33.9870    1.8234    3.0191 C.ar    1  LIG1        0.1234
      6 C          33.6013    0.7237    2.3029 C.ar    1  LIG1       -0.0257
      7 H          34.2462    0.1199    1.9528 H       1  LIG1        0.0646
      8 C          32.2463    0.5137    2.1021 C.ar    1  LIG1       -0.0469
      9 H          31.9579   -0.2514    1.6181 H       1  LIG1        0.0626
     10 C          31.3016    1.4086    2.6000 C.ar    1  LIG1        0.0369
     11 C          29.8526    1.1044    2.3802 C.2     1  LIG1        0.2443
     12 C          26.8581    3.0173    3.1402 C.3     1  LIG1       -0.0342
     13 H          27.0487    2.7775    4.0810 H       1  LIG1        0.0283
     14 H          27.2016    3.9322    2.9820 H       1  LIG1        0.0283
     15 C          25.3512    2.9969    2.9099 C.3     1  LIG1       -0.0467
     16 H          24.9219    3.6745    3.4903 H       1  LIG1        0.0269
     17 H          24.9917    2.1088    3.1592 H       1  LIG1        0.0269
     18 C          25.0087    3.2891    1.4498 C.3     1  LIG1       -0.0167
     19 H          25.3625    4.1956    1.2189 H       1  LIG1        0.0320
     20 C          25.6981    2.2596    0.5483 C.3     1  LIG1       -0.0467
     21 H          25.3539    1.3552    0.7571 H       1  LIG1        0.0269
     22 H          25.4885    2.4570   -0.3992 H       1  LIG1        0.0269
     23 C          27.2080    2.2879    0.7494 C.3     1  LIG1       -0.0342
     24 H          27.5592    3.1687    0.4654 H       1  LIG1        0.0283
     25 H          27.6272    1.5935    0.1808 H       1  LIG1        0.0283
     26 C          27.5818    2.0386    2.2129 C.3     1  LIG1        0.0234
     27 H          27.3048    1.1091    2.4558 H       1  LIG1        0.0498
     28 C          23.5184    3.2750    1.1788 C.3     1  LIG1        0.1021
     29 H          23.3743    3.3032    0.2005 H       1  LIG1        0.0561
     30 H          23.1421    2.4219    1.5125 H       1  LIG1        0.0561
     31 C           8.4742    0.0922    4.8782 C.ar    2  LIG2       -0.0257
     32 H           8.2518    0.8400    4.3370 H       2  LIG2        0.0646
     33 C           9.7753   -0.1492    5.2527 C.ar    2  LIG2       -0.0469
     34 H          10.4586    0.4535    4.9831 H       2  LIG2        0.0626
     35 C          10.1091   -1.2625    6.0224 C.ar    2  LIG2        0.0369
     36 C           9.0988   -2.1381    6.4145 C.ar    2  LIG2       -0.0469
     37 H           9.3153   -2.9074    6.9288 H       2  LIG2        0.0626
     38 C           7.7791   -1.8967    6.0621 C.ar    2  LIG2       -0.0257
     39 H           7.0853   -2.4874    6.3327 H       2  LIG2        0.0646
     40 C           7.5012   -0.7860    5.3143 C.ar    2  LIG2        0.1234
     41 C          11.5097   -1.5872    6.4360 C.2     2  LIG2        0.2443
     42 C          13.8933   -0.3886    8.4445 C.3     2  LIG2       -0.0342
     43 H          13.5293    0.5111    8.6381 H       2  LIG2        0.0283
     44 H          13.3708   -1.0489    8.9639 H       2  LIG2        0.0283
     45 C          15.3528   -0.4462    8.8816 C.3     2  LIG2       -0.0467
     46 H          15.6980   -1.3662    8.7634 H       2  LIG2        0.0269
     47 H          15.4204   -0.2131    9.8410 H       2  LIG2        0.0269
     48 C          16.1974    0.5289    8.0568 C.3     2  LIG2       -0.0167
     49 H          15.8393    1.4521    8.1960 H       2  LIG2        0.0320
     50 C          16.0765    0.1812    6.5728 C.3     2  LIG2       -0.0467
     51 H          16.6127    0.8201    6.0410 H       2  LIG2        0.0269
     52 H          16.4368   -0.7274    6.4168 H       2  LIG2        0.0269
     53 C          14.6254    0.2351    6.1127 C.3     2  LIG2       -0.0342
     54 H          14.5724   -0.0382    5.1621 H       2  LIG2        0.0283
     55 H          14.2939    1.1646    6.1824 H       2  LIG2        0.0283
     56 C          13.7424   -0.6844    6.9556 C.3     2  LIG2        0.0234
     57 H          14.0267   -1.6291    6.7927 H       2  LIG2        0.0498
     58 C          17.6322    0.4907    8.5492 C.3     2  LIG2        0.1021
     59 H          17.6318    0.5273    9.5385 H       2  LIG2        0.0561
     60 H          18.0404   -0.3697    8.2802 H       2  LIG2        0.0561
     61 F          35.3116    2.0402    3.2193 F       1  LIG1       -0.2055
     62 F           6.2190   -0.5305    4.9747 F       2  LIG2       -0.2055
     63 N          29.0175    2.1585    2.4082 N.am    1  LIG1       -0.3085
     64 H          29.3338    2.9325    2.4110 H       1  LIG1        0.1493
     65 N          22.7661    4.4113    1.8089 N.pl3   1  LIG1        0.0227
     66 N          12.3517   -0.5451    6.5411 N.am    2  LIG2       -0.3085
     67 H          12.0726    0.2461    6.4992 H       2  LIG2        0.1493
     68 N          18.4717    1.6113    8.0228 N.pl3   2  LIG2        0.0227
     69 O          29.4680   -0.0529    2.2079 O.2     1  LIG1       -0.2702
     70 O          21.5598    4.3087    1.8476 O.2     1  LIG1       -0.1317
     71 O          23.3590    5.3843    2.2199 O.2     1  LIG1       -0.1317
     72 O          11.8596   -2.7539    6.6531 O.2     2  LIG2       -0.2702
     73 O          19.6645    1.4977    8.1436 O.2     2  LIG2       -0.1317
     74 O          17.9666    2.5822    7.5225 O.2     2  LIG2       -0.1317
@<TRIPOS>BOND
     1    22    20    1
     2    25    23    1
     3    29    28    1
     4    24    23    1
     5    20    23    1
     6    20    21    1
     7    20    18    1
     8    23    26    1
     9    28    18    1
    10    28    30    1
    11    28    65    1
    12    19    18    1
    13    18    15    1
    14     9     8    1
    15    65    70    2
    16    65    71    2
    17     7     6    1
    18     8     6   ar
    19     8    10   ar
    20    69    11    2
    21    26    63    1
    22    26    27    1
    23    26    12    1
    24     6     5   ar
    25    11    63   am
    26    11    10    1
    27    63    64    1
    28    10     1   ar
    29    15    12    1
    30    15    17    1
    31    15    16    1
    32    14    12    1
    33     5    61    1
    34     5     3   ar
    35    12    13    1
    36     1     3   ar
    37     1     2    1
    38     3     4    1
    39    32    31    1
    40    31    33   ar
    41    31    40   ar
    42    62    40    1
    43    34    33    1
    44    54    53    1
    45    33    35   ar
    46    40    38   ar
    47    35    36   ar
    48    35    41    1
    49    51    50    1
    50    38    39    1
    51    38    36   ar
    52    53    55    1
    53    53    50    1
    54    53    56    1
    55    36    37    1
    56    52    50    1
    57    41    66   am
    58    41    72    2
    59    67    66    1
    60    66    56    1
    61    50    48    1
    62    57    56    1
    63    56    42    1
    64    74    68    2
    65    68    73    2
    66    68    58    1
    67    48    49    1
    68    48    58    1
    69    48    45    1
    70    60    58    1
    71    42    43    1
    72    42    45    1
    73    42    44    1
    74    58    59    1
    75    46    45    1
    76    45    47    1
