@<TRIPOS>MOLECULE
?
 51 54 0 0 0
SMALL
GASTEIGER

@<TRIPOS>ATOM
      1 S           1.2787    0.4469    9.8517 S.O2    1  LIG1        0.0789
      2 N           2.5335    0.3674   10.9206 N.pl3   1  LIG1       -0.1712
      3 O           1.3972   -0.7070    9.0277 O.2     1  LIG1       -0.1495
      4 C           4.6454   -0.5142   10.1115 C.ar    1  LIG1       -0.0235
      5 C          -0.1654    0.2979   10.8426 C.ar    1  LIG1        0.1091
      6 O           1.2587    1.7550    9.2788 O.2     1  LIG1       -0.1495
      7 C           3.4914   -0.7080   10.8612 C.ar    1  LIG1        0.0601
      8 C          -0.5655   -0.9418   11.2992 C.ar    1  LIG1       -0.0348
      9 H          -0.1036   -1.7091   11.0480 H       1  LIG1        0.0637
     10 C           5.0238    1.9958   10.2154 C.3     1  LIG1        0.0105
     11 H           5.9127    1.8612   10.6063 H       1  LIG1        0.0398
     12 C           4.7747    0.7592    9.3271 C.3     1  LIG1       -0.0153
     13 H           3.9631    0.8970    8.8149 H       1  LIG1        0.0323
     14 H           5.5095    0.6695    8.6998 H       1  LIG1        0.0323
     15 C           2.9268    1.5153   11.6926 C.ar    1  LIG1        0.0606
     16 C           3.3087   -1.8420   11.6208 C.ar    1  LIG1       -0.0384
     17 H           2.5302   -1.9573   12.1145 H       1  LIG1        0.0637
     18 C           4.0922    2.2296   11.3944 C.ar    1  LIG1       -0.0170
     19 C           5.6195   -1.4944   10.1597 C.ar    1  LIG1       -0.0567
     20 H           6.4055   -1.3823    9.6760 H       1  LIG1        0.0621
     21 C          -0.8646    1.4240   11.2039 C.ar    1  LIG1       -0.0348
     22 H          -0.6037    2.2569   10.8822 H       1  LIG1        0.0637
     23 C          -2.3614    0.0961   12.5277 C.ar    1  LIG1       -0.0503
     24 C           5.4447   -2.6333   10.9132 C.ar    1  LIG1       -0.0614
     25 H           6.1077   -3.2852   10.9280 H       1  LIG1        0.0618
     26 C           2.1762    1.8132   12.8296 C.ar    1  LIG1       -0.0384
     27 H           1.4172    1.3134   13.0263 H       1  LIG1        0.0637
     28 C          -1.6642   -1.0283   12.1367 C.ar    1  LIG1       -0.0570
     29 H          -1.9391   -1.8628   12.4423 H       1  LIG1        0.0621
     30 C           2.5504    2.8479   13.6671 C.ar    1  LIG1       -0.0599
     31 H           2.0339    3.0609   14.4094 H       1  LIG1        0.0618
     32 C           3.6916    3.5559   13.3900 C.ar    1  LIG1       -0.0614
     33 H           3.9575    4.2494   13.9504 H       1  LIG1        0.0618
     34 C           5.1392    3.2516    9.3704 C.2     1  LIG1       -0.0719
     35 C           4.4443    3.2371   12.2753 C.ar    1  LIG1       -0.0562
     36 H           5.2213    3.7209   12.1095 H       1  LIG1        0.0621
     37 C           4.3046   -2.8095   11.6382 C.ar    1  LIG1       -0.0599
     38 H           4.1924   -3.5815   12.1454 H       1  LIG1        0.0618
     39 C          -3.5523   -0.0208   13.4593 C.3     1  LIG1       -0.0397
     40 H          -3.6802   -0.9418   13.7018 H       1  LIG1        0.0278
     41 H          -4.3391    0.3043   13.0164 H       1  LIG1        0.0278
     42 H          -3.3919    0.4981   14.2511 H       1  LIG1        0.0278
     43 C          -1.9548    1.3214   12.0439 C.ar    1  LIG1       -0.0570
     44 H          -2.4204    2.0871   12.2864 H       1  LIG1        0.0621
     45 C           3.9005    3.8426    8.8199 C.3     1  LIG1       -0.0435
     46 H           4.1187    4.6323    8.3200 H       1  LIG1        0.0274
     47 H           3.3095    4.0732    9.5399 H       1  LIG1        0.0274
     48 H           3.4704    3.2067    8.2446 H       1  LIG1        0.0274
     49 C           6.3300    3.8090    9.1873 C.2     1  LIG1       -0.0991
     50 H           6.4044    4.5970    8.6986 H       1  LIG1        0.0534
     51 H           7.0900    3.4117    9.5461 H       1  LIG1        0.0534
@<TRIPOS>BOND
     1    48    45    1
     2    46    45    1
     3    50    49    1
     4    14    12    1
     5    13    12    1
     6    45    34    1
     7    45    47    1
     8     3     1    2
     9    49    34    2
    10    49    51    1
    11     6     1    2
    12    12     4    1
    13    12    10    1
    14    34    10    1
    15    20    19    1
    16     1     5    1
    17     1     2    1
    18     4    19   ar
    19     4     7   ar
    20    19    24   ar
    21    10    11    1
    22    10    18    1
    23     5    21   ar
    24     5     8   ar
    25     7     2    1
    26     7    16   ar
    27    22    21    1
    28    24    25    1
    29    24    37   ar
    30     2    15    1
    31     9     8    1
    32    21    43   ar
    33     8    28   ar
    34    18    15   ar
    35    18    35   ar
    36    16    37   ar
    37    16    17    1
    38    37    38    1
    39    15    26   ar
    40    43    44    1
    41    43    23   ar
    42    36    35    1
    43    28    29    1
    44    28    23   ar
    45    35    32   ar
    46    23    39    1
    47    26    27    1
    48    26    30   ar
    49    41    39    1
    50    32    30   ar
    51    32    33    1
    52    39    40    1
    53    39    42    1
    54    30    31    1
