@<TRIPOS>MOLECULE
?
 57 60 0 0 0
SMALL
GASTEIGER

@<TRIPOS>ATOM
      1 S           3.2639    1.8877    4.9423 S.O2    1  LIG1        0.0750
      2 N           3.9716    0.4491    4.6412 N.pl3   1  LIG1       -0.1994
      3 C           2.5198    2.4628    3.4446 C.ar    1  LIG1        0.1087
      4 C           3.1391   -0.7305    4.5630 C.ar    1  LIG1        0.0553
      5 C           3.5797   -0.7424    2.0963 C.3     1  LIG1        0.0068
      6 H           3.5162    0.2325    2.1733 H       1  LIG1        0.0394
      7 O           2.1953    1.6681    5.8678 O.2     1  LIG1       -0.1498
      8 C           2.1155   -2.4611    3.2856 C.ar    1  LIG1       -0.0562
      9 H           1.9478   -2.8762    2.4699 H       1  LIG1        0.0621
     10 O           4.3090    2.8015    5.2673 O.2     1  LIG1       -0.1498
     11 C           2.8959   -1.3124    3.3211 C.ar    1  LIG1       -0.0177
     12 C           5.7753   -0.8788    3.4797 C.3     1  LIG1       -0.0198
     13 H           5.5559   -1.6470    4.0472 H       1  LIG1        0.0319
     14 C           5.4281    0.3909    4.2719 C.3     1  LIG1        0.0491
     15 H           5.6397    1.1714    3.7172 H       1  LIG1        0.0521
     16 C           2.8963   -1.1145    0.7971 C.2     1  LIG1       -0.0722
     17 C           1.8417   -2.4122    5.6604 C.ar    1  LIG1       -0.0599
     18 H           1.4847   -2.7790    6.4371 H       1  LIG1        0.0618
     19 C           2.6276   -1.2825    5.7258 C.ar    1  LIG1       -0.0388
     20 H           2.8131   -0.8919    6.5491 H       1  LIG1        0.0637
     21 C           5.0732   -1.0853    2.1448 C.3     1  LIG1       -0.0379
     22 H           5.1788   -2.0147    1.8884 H       1  LIG1        0.0277
     23 H           5.5288   -0.5485    1.4770 H       1  LIG1        0.0277
     24 C           1.1782    2.2548    3.2202 C.ar    1  LIG1       -0.0348
     25 H           0.6618    1.8035    3.8480 H       1  LIG1        0.0637
     26 C           3.2788    3.1354    2.4993 C.ar    1  LIG1       -0.0348
     27 H           4.1844    3.2819    2.6502 H       1  LIG1        0.0637
     28 C           1.3480    3.3850    1.0931 C.ar    1  LIG1       -0.0503
     29 C           2.6980    3.5864    1.3412 C.ar    1  LIG1       -0.0570
     30 H           3.2164    4.0340    0.7123 H       1  LIG1        0.0621
     31 C           1.5870   -2.9941    4.4381 C.ar    1  LIG1       -0.0614
     32 H           1.0530   -3.7544    4.3917 H       1  LIG1        0.0618
     33 C           7.2932   -0.9144    3.2282 C.3     1  LIG1       -0.0484
     34 H           7.5169   -1.7519    2.7926 H       1  LIG1        0.0269
     35 H           7.5247   -0.1960    2.6182 H       1  LIG1        0.0269
     36 C           3.3889   -1.9389   -0.0994 C.2     1  LIG1       -0.0991
     37 H           2.9165   -2.1104   -0.8824 H       1  LIG1        0.0534
     38 H           4.2094   -2.3505    0.0480 H       1  LIG1        0.0534
     39 C           0.6079    2.7220    2.0562 C.ar    1  LIG1       -0.0570
     40 H          -0.3009    2.5875    1.9131 H       1  LIG1        0.0621
     41 C           6.2623    0.4604    5.5416 C.3     1  LIG1       -0.0323
     42 H           6.0399    1.2717    6.0257 H       1  LIG1        0.0284
     43 H           6.0429   -0.2948    6.1086 H       1  LIG1        0.0284
     44 C           1.5793   -0.4420    0.5792 C.3     1  LIG1       -0.0435
     45 H           1.2065   -0.7323   -0.2573 H       1  LIG1        0.0274
     46 H           1.7052    0.5090    0.5611 H       1  LIG1        0.0274
     47 H           0.9805   -0.6716    1.2938 H       1  LIG1        0.0274
     48 C           7.7521    0.4482    5.2480 C.3     1  LIG1       -0.0513
     49 H           7.9875    1.2383    4.7377 H       1  LIG1        0.0266
     50 H           8.2461    0.4710    6.0824 H       1  LIG1        0.0266
     51 C           8.1321   -0.7782    4.4760 C.3     1  LIG1       -0.0527
     52 H           8.0094   -1.5619    5.0343 H       1  LIG1        0.0265
     53 H           9.0688   -0.7278    4.2318 H       1  LIG1        0.0265
     54 C           0.7154    3.8729   -0.1861 C.3     1  LIG1       -0.0397
     55 H          -0.2205    3.6587   -0.1817 H       1  LIG1        0.0278
     56 H           1.1381    3.4475   -0.9347 H       1  LIG1        0.0278
     57 H           0.8251    4.8241   -0.2544 H       1  LIG1        0.0278
@<TRIPOS>BOND
     1    56    54    1
     2    37    36    1
     3    45    44    1
     4    57    54    1
     5    54    55    1
     6    54    28    1
     7    36    38    1
     8    36    16    2
     9    46    44    1
    10    44    16    1
    11    44    47    1
    12    30    29    1
    13    16     5    1
    14    28    29   ar
    15    28    39   ar
    16    29    26   ar
    17    23    21    1
    18    22    21    1
    19    40    39    1
    20    39    24   ar
    21     5    21    1
    22     5     6    1
    23     5    11    1
    24    21    12    1
    25     9     8    1
    26    26    27    1
    27    26     3   ar
    28    35    33    1
    29    34    33    1
    30    24     3   ar
    31    24    25    1
    32    33    12    1
    33    33    51    1
    34     8    11   ar
    35     8    31   ar
    36    11     4   ar
    37     3     1    1
    38    12    13    1
    39    12    14    1
    40    15    14    1
    41    53    51    1
    42    14     2    1
    43    14    41    1
    44    32    31    1
    45    31    17   ar
    46    51    52    1
    47    51    48    1
    48     4     2    1
    49     4    19   ar
    50     2     1    1
    51    49    48    1
    52     1    10    2
    53     1     7    2
    54    48    41    1
    55    48    50    1
    56    41    42    1
    57    41    43    1
    58    17    19   ar
    59    17    18    1
    60    19    20    1
