@<TRIPOS>MOLECULE
C32 H41 N O4 S
 79 84 0 0 0
SMALL
GASTEIGER

@<TRIPOS>ATOM
      1 S           8.2138    6.5808   21.8933 S.O2    1  LIG1        0.0614
      2 O           5.4594    2.8221   17.4332 O.3     1  LIG1       -0.3752
      3 O           8.8773    5.3558   21.5467 O.2     1  LIG1       -0.1528
      4 O           8.9457    7.8148   21.8678 O.2     1  LIG1       -0.1528
      5 O           6.0340    5.5733   16.7838 O.3     1  LIG1       -0.3877
      6 H           5.9120    4.7493   16.6753 H       1  LIG1        0.2102
      7 N           6.9629    6.7618   20.8536 N.3     1  LIG1       -0.1689
      8 C           5.8981    5.8663   27.4575 C.3     1  LIG1       -0.0397
      9 H           6.5499    6.1738   28.1211 H       1  LIG1        0.0278
     10 H           5.7001    4.9181   27.6091 H       1  LIG1        0.0278
     11 H           5.0734    6.3891   27.5426 H       1  LIG1        0.0278
     12 C           6.4668    6.0452   26.0719 C.ar    1  LIG1       -0.0503
     13 C           6.9385    4.9568   25.3504 C.ar    1  LIG1       -0.0570
     14 H           6.8871    4.0892   25.7334 H       1  LIG1        0.0621
     15 C           7.4819    5.1072   24.0856 C.ar    1  LIG1       -0.0351
     16 H           7.7947    4.3500   23.6044 H       1  LIG1        0.0637
     17 C           7.5654    6.3762   23.5282 C.ar    1  LIG1        0.1055
     18 C           6.0795    5.5812   20.5973 C.3     1  LIG1        0.0588
     19 H           6.6368    4.7512   20.6171 H       1  LIG1        0.0530
     20 C           5.4720    5.7449   19.1697 C.3     1  LIG1        0.0285
     21 C           4.5345    4.5294   18.8870 C.3     1  LIG1       -0.0188
     22 H           3.8458    4.5258   19.5980 H       1  LIG1        0.0294
     23 H           4.0646    4.7203   18.0367 H       1  LIG1        0.0294
     24 C           5.0712    3.1127   18.7856 C.3     1  LIG1        0.0488
     25 H           5.8533    3.0104   19.3844 H       1  LIG1        0.0560
     26 H           4.3750    2.4720   19.0762 H       1  LIG1        0.0560
     27 C           5.8534    1.4572   17.3197 C.3     1  LIG1        0.0727
     28 H           5.0711    0.8728   17.4805 H       1  LIG1        0.0610
     29 H           6.5363    1.2523   18.0068 H       1  LIG1        0.0610
     30 C           6.4187    1.1755   15.9490 C.ar    1  LIG1       -0.0219
     31 C           7.1823    2.1120   15.2724 C.ar    1  LIG1       -0.0564
     32 H           7.3098    2.9759   15.6456 H       1  LIG1        0.0621
     33 C           7.7646    1.7951   14.0499 C.ar    1  LIG1       -0.0614
     34 H           8.2836    2.4429   13.5886 H       1  LIG1        0.0618
     35 C           7.5865    0.5334   13.5047 C.ar    1  LIG1       -0.0617
     36 H           7.9954    0.3100   12.6767 H       1  LIG1        0.0618
     37 C           5.0205    5.4829   21.6722 C.2     1  LIG1       -0.0687
     38 H           5.2120    4.9925   22.4630 H       1  LIG1        0.0585
     39 C           3.8350    6.0583   21.5459 C.2     1  LIG1       -0.0859
     40 H           3.2245    6.0066   22.2719 H       1  LIG1        0.0570
     41 C           3.4190    6.7837   20.3132 C.3     1  LIG1       -0.0283
     42 H           3.0509    7.6634   20.5797 H       1  LIG1        0.0313
     43 H           2.6859    6.2738   19.8853 H       1  LIG1        0.0313
     44 C           4.5413    7.0226   19.2454 C.3     1  LIG1       -0.0145
     45 C           6.2246   -0.0809   15.3819 C.ar    1  LIG1       -0.0564
     46 H           5.6850   -0.7215   15.8304 H       1  LIG1        0.0621
     47 C           6.8094   -0.4035   14.1720 C.ar    1  LIG1       -0.0614
     48 H           6.6789   -1.2667   13.7969 H       1  LIG1        0.0618
     49 C           6.6271    5.8050   18.0783 C.3     1  LIG1        0.0768
     50 C           7.4794    7.0980   17.8964 C.3     1  LIG1       -0.0115
     51 H           7.9247    7.3000   18.7688 H       1  LIG1        0.0329
     52 C           6.7714    8.3511   17.4318 C.3     1  LIG1       -0.0473
     53 H           6.1341    8.1068   16.7146 H       1  LIG1        0.0269
     54 H           7.4408    8.9663   17.0404 H       1  LIG1        0.0269
     55 C           6.0069    9.0958   18.5339 C.3     1  LIG1       -0.0481
     56 H           5.2977    9.6299   18.0954 H       1  LIG1        0.0269
     57 H           6.6352    9.7365   18.9514 H       1  LIG1        0.0269
     58 C           5.3420    8.2866   19.6729 C.3     1  LIG1       -0.0202
     59 H           4.6344    8.9051   20.0144 H       1  LIG1        0.0319
     60 C           6.2365    8.0520   20.9044 C.3     1  LIG1        0.0245
     61 H           6.8934    8.7894   20.9707 H       1  LIG1        0.0447
     62 H           5.6744    8.0735   21.7193 H       1  LIG1        0.0447
     63 C           8.5628    6.6469   16.9036 C.3     1  LIG1       -0.0475
     64 H           9.3818    7.1928   17.0093 H       1  LIG1        0.0269
     65 H           8.2400    6.7344   15.9718 H       1  LIG1        0.0269
     66 C           8.8463    5.1724   17.2427 C.3     1  LIG1       -0.0501
     67 H           9.7551    5.0696   17.6219 H       1  LIG1        0.0266
     68 H           8.7728    4.6072   16.4334 H       1  LIG1        0.0266
     69 C           7.7730    4.7781   18.2835 C.3     1  LIG1       -0.0231
     70 H           8.1364    4.8358   19.2026 H       1  LIG1        0.0293
     71 H           7.4509    3.8556   18.1240 H       1  LIG1        0.0293
     72 C           3.7667    7.3412   17.9492 C.3     1  LIG1       -0.0583
     73 H           3.2627    8.1736   18.0661 H       1  LIG1        0.0235
     74 H           3.1464    6.6090   17.7509 H       1  LIG1        0.0235
     75 H           4.3990    7.4437   17.2076 H       1  LIG1        0.0235
     76 C           7.1064    7.4870   24.2301 C.ar    1  LIG1       -0.0351
     77 H           7.1678    8.3552   23.8499 H       1  LIG1        0.0637
     78 C           6.5579    7.3092   25.4923 C.ar    1  LIG1       -0.0570
     79 H           6.2383    8.0650   25.9711 H       1  LIG1        0.0621
@<TRIPOS>BOND
     1    36    35    1
     2    35    33   ar
     3    35    47   ar
     4    34    33    1
     5    48    47    1
     6    33    31   ar
     7    47    45   ar
     8    31    32    1
     9    31    30   ar
    10    45    46    1
    11    45    30   ar
    12    30    27    1
    13    65    63    1
    14    68    66    1
    15     6     5    1
    16    53    52    1
    17     5    49    1
    18    63    64    1
    19    63    66    1
    20    63    50    1
    21    54    52    1
    22    75    72    1
    23    66    67    1
    24    66    69    1
    25    27     2    1
    26    27    28    1
    27    27    29    1
    28    52    50    1
    29    52    55    1
    30     2    24    1
    31    74    72    1
    32    50    49    1
    33    50    51    1
    34    72    73    1
    35    72    44    1
    36    23    21    1
    37    49    69    1
    38    49    20    1
    39    56    55    1
    40    71    69    1
    41    69    70    1
    42    55    57    1
    43    55    58    1
    44    24    21    1
    45    24    26    1
    46    24    25    1
    47    21    20    1
    48    21    22    1
    49    20    44    1
    50    20    18    1
    51    44    58    1
    52    44    41    1
    53    58    59    1
    54    58    60    1
    55    43    41    1
    56    41    42    1
    57    41    39    1
    58    18    19    1
    59    18     7    1
    60    18    37    1
    61     7    60    1
    62     7     1    1
    63    60    61    1
    64    60    62    1
    65    39    37    2
    66    39    40    1
    67     3     1    2
    68    37    38    1
    69     4     1    2
    70     1    17    1
    71    17    15   ar
    72    17    76   ar
    73    16    15    1
    74    77    76    1
    75    15    13   ar
    76    76    78   ar
    77    13    14    1
    78    13    12   ar
    79    78    79    1
    80    78    12   ar
    81    12     8    1
    82     8    11    1
    83     8    10    1
    84     8     9    1
