@<TRIPOS>MOLECULE
4127951.cif
 56 58 0 0 0
SMALL
GASTEIGER

@<TRIPOS>ATOM
      1 CL          4.7594   -1.3523    5.1029 Cl      1  LIG1       -0.0824
      2 C           4.2338    0.0828    4.1750 C.3     1  LIG1        0.2012
      3 F           5.1645    5.1662    0.2788 F       1  LIG1       -0.2055
      4 CL          4.0600   -0.4186    2.4798 Cl      1  LIG1       -0.0824
      5 C           5.2969    1.2105    4.3068 C.3     1  LIG1        0.0559
      6 H           6.1814    0.7671    4.1625 H       1  LIG1        0.0439
      7 F           8.0673    7.1616    9.6971 F       2  LIG2       -0.2055
      8 CL          2.6372    0.5641    4.8052 Cl      1  LIG1       -0.0824
      9 C           5.3411    1.7681    5.7353 C.ar    1  LIG1       -0.0358
     10 CL         11.3498    4.3840    5.2182 Cl      2  LIG2       -0.0824
     11 C           4.5072    3.2567    7.4528 C.ar    1  LIG1       -0.0431
     12 H           3.9243    3.9552    7.7245 H       1  LIG1        0.0632
     13 CL          5.3470    3.1977   10.0222 Cl      1  LIG1       -0.0835
     14 C           4.5180    2.8147    6.1329 C.ar    1  LIG1       -0.0565
     15 H           3.9544    3.2355    5.4943 H       1  LIG1        0.0621
     16 CL          9.2025    2.4865    5.4530 Cl      2  LIG2       -0.0824
     17 C           6.2333    1.6526    7.9851 C.ar    1  LIG1       -0.0431
     18 H           6.8344    1.2747    8.6158 H       1  LIG1        0.0632
     19 CL         10.0799    3.3191    2.8464 Cl      2  LIG2       -0.0824
     20 C           5.3605    2.6608    8.3591 C.ar    1  LIG1        0.0410
     21 CL          9.1299    9.1591    0.1371 Cl      2  LIG2       -0.0835
     22 C           6.2129    1.2043    6.6706 C.ar    1  LIG1       -0.0565
     23 H           6.7993    0.5064    6.4039 H       1  LIG1        0.0621
     24 C           5.1934    2.2859    3.2281 C.ar    1  LIG1       -0.0358
     25 C           3.9914    3.8752    1.8634 C.ar    1  LIG1       -0.0262
     26 H           3.1794    4.2995    1.6128 H       1  LIG1        0.0646
     27 C           4.0065    2.9099    2.8551 C.ar    1  LIG1       -0.0551
     28 H           3.1955    2.6707    3.2878 H       1  LIG1        0.0621
     29 C           5.1801    4.2087    1.2452 C.ar    1  LIG1        0.1234
     30 C           6.3693    3.6136    1.5648 C.ar    1  LIG1       -0.0262
     31 H           7.1711    3.8526    1.1153 H       1  LIG1        0.0646
     32 C           6.3716    2.6475    2.5676 C.ar    1  LIG1       -0.0551
     33 H           7.1883    2.2267    2.8073 H       1  LIG1        0.0621
     34 C           9.7952    3.8791    4.5097 C.3     2  LIG2        0.2012
     35 C           8.7229    5.0061    4.5202 C.3     2  LIG2        0.0559
     36 H           7.8551    4.5501    4.3209 H       2  LIG2        0.0439
     37 C           8.8934    6.0534    3.4264 C.ar    2  LIG2       -0.0358
     38 C          10.1107    6.6415    3.0754 C.ar    2  LIG2       -0.0565
     39 H          10.9045    6.3773    3.5254 H       2  LIG2        0.0621
     40 C          10.1783    7.6060    2.0788 C.ar    2  LIG2       -0.0431
     41 H          11.0090    8.0109    1.8605 H       2  LIG2        0.0632
     42 C           9.0240    7.9722    1.4049 C.ar    2  LIG2        0.0410
     43 C           7.8022    7.4045    1.7254 C.ar    2  LIG2       -0.0431
     44 H           7.0150    7.6593    1.2594 H       2  LIG2        0.0632
     45 C           7.7466    6.4610    2.7329 C.ar    2  LIG2       -0.0565
     46 H           6.9073    6.0781    2.9617 H       2  LIG2        0.0621
     47 C           8.5538    5.6152    5.9101 C.ar    2  LIG2       -0.0358
     48 C           7.5546    5.1357    6.7542 C.ar    2  LIG2       -0.0551
     49 H           6.9828    4.4396    6.4522 H       2  LIG2        0.0621
     50 C           7.3810    5.6551    8.0253 C.ar    2  LIG2       -0.0262
     51 H           6.6894    5.3331    8.5920 H       2  LIG2        0.0646
     52 C           8.2297    6.6469    8.4478 C.ar    2  LIG2        0.1234
     53 C           9.2272    7.1686    7.6502 C.ar    2  LIG2       -0.0262
     54 H           9.7924    7.8637    7.9653 H       2  LIG2        0.0646
     55 C           9.3788    6.6454    6.3693 C.ar    2  LIG2       -0.0551
     56 H          10.0536    6.9935    5.7987 H       2  LIG2        0.0621
@<TRIPOS>BOND
     1    21    42    1
     2     3    29    1
     3    31    30    1
     4    29    30   ar
     5    29    25   ar
     6    44    43    1
     7    42    43   ar
     8    42    40   ar
     9    30    32   ar
    10    26    25    1
    11    43    45   ar
    12    41    40    1
    13    25    27   ar
    14    40    38   ar
    15     4     2    1
    16    32    33    1
    17    32    24   ar
    18    45    46    1
    19    45    37   ar
    20    19    34    1
    21    27    24   ar
    22    27    28    1
    23    38    37   ar
    24    38    39    1
    25    24     5    1
    26    37    35    1
    27     6     5    1
    28     2     5    1
    29     2     8    1
    30     2     1    1
    31     5     9    1
    32    36    35    1
    33    34    35    1
    34    34    10    1
    35    34    16    1
    36    35    47    1
    37    15    14    1
    38     9    14   ar
    39     9    22   ar
    40    56    55    1
    41    47    55   ar
    42    47    48   ar
    43    14    11   ar
    44    55    53   ar
    45    23    22    1
    46    49    48    1
    47    22    17   ar
    48    48    50   ar
    49    11    12    1
    50    11    20   ar
    51    53    54    1
    52    53    52   ar
    53    17    20   ar
    54    17    18    1
    55    50    52   ar
    56    50    51    1
    57    20    13    1
    58    52     7    1
