@<TRIPOS>MOLECULE
C20 H28 N
 49 50 0 0 0
SMALL
GASTEIGER

@<TRIPOS>ATOM
      1 N           7.9947    7.4319    7.2188 N.pl3   1  LIG1       -0.2826
      2 C           8.7923    8.5715    7.1928 C.2     1  LIG1       -0.0019
      3 H           9.4500    8.6792    7.8698 H       1  LIG1        0.0784
      4 C           8.6763    9.5214    6.2609 C.2     1  LIG1       -0.0619
      5 H           9.2126   10.3011    6.3431 H       1  LIG1        0.0591
      6 C           7.7377    9.4196    5.0849 C.3     1  LIG1        0.0079
      7 H           7.1378   10.2196    5.0945 H       1  LIG1        0.0395
      8 C           6.8813    8.1879    5.2333 C.2     1  LIG1       -0.0619
      9 H           6.1809    8.0483    4.6068 H       1  LIG1        0.0591
     10 C           7.0557    7.2822    6.2002 C.2     1  LIG1       -0.0019
     11 H           6.5153    6.5010    6.1927 H       1  LIG1        0.0784
     12 C           8.3306    6.3411    8.0864 C.ar    1  LIG1        0.0444
     13 C           9.4273    5.5316    7.7688 C.ar    1  LIG1       -0.0226
     14 C           9.7973    4.5375    8.6782 C.ar    1  LIG1       -0.0531
     15 H          10.5510    3.9924    8.4851 H       1  LIG1        0.0624
     16 C           9.0928    4.3237    9.8583 C.ar    1  LIG1       -0.0441
     17 C           7.9621    5.1080   10.1102 C.ar    1  LIG1       -0.0531
     18 H           7.4537    4.9441   10.8959 H       1  LIG1        0.0624
     19 C           7.5587    6.1222    9.2442 C.ar    1  LIG1       -0.0226
     20 C           6.3431    6.9889    9.5340 C.3     1  LIG1       -0.0197
     21 H           5.9095    7.1953    8.6569 H       1  LIG1        0.0344
     22 C           6.7632    8.3223   10.1587 C.3     1  LIG1       -0.0586
     23 H           7.2030    8.1561   11.0187 H       1  LIG1        0.0235
     24 H           5.9707    8.8812   10.2998 H       1  LIG1        0.0235
     25 H           7.3852    8.7832    9.5577 H       1  LIG1        0.0235
     26 C           5.2949    6.2986   10.4082 C.3     1  LIG1       -0.0586
     27 H           5.0721    5.4254   10.0232 H       1  LIG1        0.0235
     28 H           4.4877    6.8529   10.4495 H       1  LIG1        0.0235
     29 H           5.6531    6.1754   11.3120 H       1  LIG1        0.0235
     30 C          10.1858    5.7075    6.4615 C.3     1  LIG1       -0.0197
     31 H           9.7380    6.4402    5.9490 H       1  LIG1        0.0344
     32 C          10.1139    4.4363    5.6092 C.3     1  LIG1       -0.0586
     33 H          10.5376    3.6955    6.0912 H       1  LIG1        0.0235
     34 H          10.5823    4.5846    4.7613 H       1  LIG1        0.0235
     35 H           9.1760    4.2156    5.4302 H       1  LIG1        0.0235
     36 C          11.6344    6.1338    6.7064 C.3     1  LIG1       -0.0586
     37 H          11.6476    6.9472    7.2527 H       1  LIG1        0.0235
     38 H          12.0726    6.3097    5.8477 H       1  LIG1        0.0235
     39 H          12.1108    5.4173    7.1756 H       1  LIG1        0.0235
     40 C           9.5261    3.2420   10.8292 C.3     1  LIG1       -0.0215
     41 H          10.4054    2.8907   10.5078 H       1  LIG1        0.0343
     42 C           9.7441    3.7840   12.2372 C.3     1  LIG1       -0.0586
     43 H          10.3794    4.5295   12.2055 H       1  LIG1        0.0235
     44 H          10.1024    3.0734   12.8090 H       1  LIG1        0.0235
     45 H           8.8904    4.0978   12.6023 H       1  LIG1        0.0235
     46 C           8.5468    2.0810   10.8177 C.3     1  LIG1       -0.0586
     47 H           7.6755    2.3853   11.1474 H       1  LIG1        0.0235
     48 H           8.8828    1.3646   11.3958 H       1  LIG1        0.0235
     49 H           8.4503    1.7441    9.9025 H       1  LIG1        0.0235
@<TRIPOS>BOND
     1     9     8    1
     2    34    32    1
     3     6     7    1
     4     6     8    1
     5     6     4    1
     6     8    10    2
     7    35    32    1
     8    32    33    1
     9    32    30    1
    10    38    36    1
    11    31    30    1
    12    11    10    1
    13    10     1    1
    14     4     5    1
    15     4     2    2
    16    30    36    1
    17    30    13    1
    18    36    39    1
    19    36    37    1
    20     2     1    1
    21     2     3    1
    22     1    12    1
    23    13    12   ar
    24    13    14   ar
    25    12    19   ar
    26    15    14    1
    27    21    20    1
    28    14    16   ar
    29    19    20    1
    30    19    17   ar
    31    20    22    1
    32    20    26    1
    33    25    22    1
    34    16    17   ar
    35    16    40    1
    36    49    46    1
    37    27    26    1
    38    17    18    1
    39    22    24    1
    40    22    23    1
    41    26    28    1
    42    26    29    1
    43    41    40    1
    44    46    40    1
    45    46    47    1
    46    46    48    1
    47    40    42    1
    48    43    42    1
    49    42    45    1
    50    42    44    1
