@<TRIPOS>MOLECULE
C16 H21 N O4 S
 43 44 0 0 0
SMALL
GASTEIGER

@<TRIPOS>ATOM
      1 S          -0.2000   -0.6080    9.5766 S.O2    1  LIG1        0.0798
      2 O          -1.6268   -0.7018    9.5432 O.2     1  LIG1       -0.1496
      3 O           0.5113   -0.2652    8.3843 O.2     1  LIG1       -0.1496
      4 O          -0.8900   -2.1709   11.8807 O.2     1  LIG1       -0.2245
      5 O           0.4994   -3.8451   11.5922 O.3     1  LIG1       -0.4456
      6 N           0.4450   -2.0982   10.0339 N.am    1  LIG1       -0.1301
      7 C           0.2907    0.4810   10.8645 C.ar    1  LIG1        0.1089
      8 C          -0.6062    0.7948   11.8739 C.ar    1  LIG1       -0.0348
      9 H          -1.4903    0.4472   11.8587 H       1  LIG1        0.0637
     10 C          -0.1923    1.6252   12.9066 C.ar    1  LIG1       -0.0570
     11 H          -0.8065    1.8612   13.5914 H       1  LIG1        0.0621
     12 C           1.1099    2.1169   12.9550 C.ar    1  LIG1       -0.0503
     13 C           1.9777    1.8170   11.9054 C.ar    1  LIG1       -0.0570
     14 H           2.8561    2.1795   11.9102 H       1  LIG1        0.0621
     15 C           1.5836    0.9988   10.8531 C.ar    1  LIG1       -0.0348
     16 H           2.1817    0.7980   10.1428 H       1  LIG1        0.0637
     17 C           1.5772    2.9252   14.1357 C.3     1  LIG1       -0.0397
     18 H           2.2174    3.6036   13.8336 H       1  LIG1        0.0278
     19 H           2.0106    2.3340   14.7855 H       1  LIG1        0.0278
     20 H           0.8085    3.3650   14.5559 H       1  LIG1        0.0278
     21 C          -0.0310   -2.6818   11.2052 C.2     1  LIG1        0.4231
     22 C           1.5876   -4.5334   10.8836 C.3     1  LIG1        0.1090
     23 H           1.1878   -5.1752   10.2291 H       1  LIG1        0.0737
     24 C           2.4092   -3.5209   10.1272 C.3     1  LIG1        0.0087
     25 H           3.1060   -3.9833    9.5972 H       1  LIG1        0.0323
     26 H           2.8592   -2.9119   10.7649 H       1  LIG1        0.0323
     27 C           1.5047   -2.7189    9.1988 C.3     1  LIG1        0.0734
     28 H           2.0471   -1.9883    8.7831 H       1  LIG1        0.0565
     29 C           2.3429   -5.3265   11.9471 C.3     1  LIG1       -0.0094
     30 H           2.6879   -4.6863   12.6339 H       1  LIG1        0.0331
     31 C           1.4143   -6.3259   12.6385 C.3     1  LIG1       -0.0593
     32 H           1.8875   -6.7490   13.3854 H       1  LIG1        0.0233
     33 H           1.1376   -7.0121   11.9965 H       1  LIG1        0.0233
     34 H           0.6234   -5.8565   12.9763 H       1  LIG1        0.0233
     35 C           3.5347   -6.0466   11.3135 C.3     1  LIG1       -0.0593
     36 H           3.9774   -6.6019   11.9882 H       1  LIG1        0.0233
     37 H           4.1694   -5.3849   10.9667 H       1  LIG1        0.0233
     38 H           3.2205   -6.6136   10.5784 H       1  LIG1        0.0233
     39 C           0.9334   -3.5722    8.0967 C.2     1  LIG1       -0.0689
     40 H           1.5547   -4.0461    7.5556 H       1  LIG1        0.0585
     41 C          -0.3448   -3.7263    7.8086 C.2     1  LIG1       -0.1008
     42 H          -1.0051   -3.2733    8.3196 H       1  LIG1        0.0532
     43 H          -0.6049   -4.2894    7.0894 H       1  LIG1        0.0532
@<TRIPOS>BOND
     1    43    41    1
     2    40    39    1
     3    41    39    2
     4    41    42    1
     5    39    27    1
     6     3     1    2
     7    28    27    1
     8    27     6    1
     9    27    24    1
    10     2     1    2
    11     1     6    1
    12     1     7    1
    13    25    24    1
    14     6    21   am
    15    24    26    1
    16    24    22    1
    17    16    15    1
    18    23    22    1
    19    38    35    1
    20    15     7   ar
    21    15    13   ar
    22     7     8   ar
    23    22     5    1
    24    22    29    1
    25    37    35    1
    26    21     5    1
    27    21     4    2
    28    35    29    1
    29    35    36    1
    30     9     8    1
    31     8    10   ar
    32    13    14    1
    33    13    12   ar
    34    29    30    1
    35    29    31    1
    36    33    31    1
    37    31    34    1
    38    31    32    1
    39    10    12   ar
    40    10    11    1
    41    12    17    1
    42    18    17    1
    43    17    20    1
    44    17    19    1
