@<TRIPOS>MOLECULE
C16 H18 Br N O5
 41 42 0 0 0
SMALL
GASTEIGER

@<TRIPOS>ATOM
      1 BR          1.9710   10.2150   12.1141 Br      1  LIG1       -0.0503
      2 O           4.0337    3.7891   15.7456 O.2     1  LIG1       -0.2962
      3 C           4.4797    5.8552   16.9637 C.3     1  LIG1        0.1339
      4 N           7.2024    6.4634   14.2790 N.pl3   1  LIG1        0.0230
      5 O           6.6051    5.5406   18.0965 O.2     1  LIG1       -0.2497
      6 C           3.5949    4.7318   16.3574 C.2     1  LIG1        0.1508
      7 O           4.7876    4.3848   18.7658 O.3     1  LIG1       -0.4642
      8 C           2.1443    5.0122   16.6401 C.3     1  LIG1        0.0070
      9 H           1.8164    4.4447   17.3810 H       1  LIG1        0.0342
     10 H           1.5914    4.8389   15.8372 H       1  LIG1        0.0342
     11 C           2.0883    6.4908   17.0259 C.3     1  LIG1       -0.0449
     12 H           1.3490    6.6614   17.6622 H       1  LIG1        0.0270
     13 H           1.9595    7.0594   16.2259 H       1  LIG1        0.0270
     14 O           7.6916    7.4763   14.7487 O.2     1  LIG1       -0.1317
     15 C           3.4503    6.7726   17.6836 C.3     1  LIG1       -0.0293
     16 H           3.4173    6.5641   18.6514 H       1  LIG1        0.0280
     17 H           3.6979    7.7249   17.5738 H       1  LIG1        0.0280
     18 O           7.4809    6.0382   13.1637 O.2     1  LIG1       -0.1317
     19 C           5.3123    6.6108   15.8883 C.3     1  LIG1        0.0309
     20 H           5.9117    7.2385   16.3855 H       1  LIG1        0.0383
     21 C           6.2310    5.6634   15.1050 C.3     1  LIG1        0.1074
     22 H           6.7273    5.0834   15.7345 H       1  LIG1        0.0564
     23 H           5.6876    5.0846   14.5131 H       1  LIG1        0.0564
     24 C           4.4730    7.4674   14.9532 C.ar    1  LIG1       -0.0408
     25 C           4.4534    8.8499   15.1256 C.ar    1  LIG1       -0.0572
     26 H           4.9618    9.2414   15.8262 H       1  LIG1        0.0621
     27 C           3.7034    9.6621   14.2908 C.ar    1  LIG1       -0.0475
     28 H           3.6947   10.6031   14.4167 H       1  LIG1        0.0629
     29 C           2.9659    9.0827   13.2701 C.ar    1  LIG1        0.0179
     30 C           2.9622    7.7151   13.0726 C.ar    1  LIG1       -0.0475
     31 H           2.4475    7.3294   12.3737 H       1  LIG1        0.0629
     32 C           3.7223    6.9158   13.9110 C.ar    1  LIG1       -0.0572
     33 H           3.7337    5.9754   13.7752 H       1  LIG1        0.0621
     34 C           5.4443    5.2532   17.9884 C.2     1  LIG1        0.3212
     35 C           5.5823    3.7045   19.7777 C.3     1  LIG1        0.0897
     36 H           5.0040    3.4414   20.5364 H       1  LIG1        0.0694
     37 H           6.2838    4.3142   20.1193 H       1  LIG1        0.0694
     38 C           6.2203    2.4787   19.1723 C.3     1  LIG1       -0.0306
     39 H           5.5246    1.9005   18.7952 H       1  LIG1        0.0262
     40 H           6.7114    1.9901   19.8649 H       1  LIG1        0.0262
     41 H           6.8394    2.7490   18.4634 H       1  LIG1        0.0262
@<TRIPOS>BOND
     1     1    29    1
     2    31    30    1
     3    30    29   ar
     4    30    32   ar
     5    18     4    2
     6    29    27   ar
     7    33    32    1
     8    32    24   ar
     9     4    14    2
    10     4    21    1
    11    27    28    1
    12    27    25   ar
    13    23    21    1
    14    24    25   ar
    15    24    19    1
    16    21    22    1
    17    21    19    1
    18    25    26    1
    19     2     6    2
    20    10     8    1
    21    19    20    1
    22    19     3    1
    23    13    11    1
    24     6     8    1
    25     6     3    1
    26     8    11    1
    27     8     9    1
    28     3    15    1
    29     3    34    1
    30    11    12    1
    31    11    15    1
    32    17    15    1
    33    15    16    1
    34    34     5    2
    35    34     7    1
    36    41    38    1
    37     7    35    1
    38    39    38    1
    39    38    35    1
    40    38    40    1
    41    35    37    1
    42    35    36    1
