@<TRIPOS>MOLECULE
4128160.cif
 54 55 0 0 0
SMALL
GASTEIGER

@<TRIPOS>ATOM
      1 S           3.9864    9.4653    8.1375 S.O2    1  LIG1        0.0615
      2 N           7.4503    8.0553   11.4882 N.2     1  LIG1       -0.0901
      3 N           5.2657    8.6122    8.7424 N.3     1  LIG1       -0.1669
      4 O           8.2128    9.1713   11.1038 O.2     1  LIG1       -0.4090
      5 H           8.8880    9.2133   11.5662 H       1  LIG1        0.3278
      6 O           8.0657    4.4512    8.5284 O.3     1  LIG1       -0.4296
      7 O           8.6573    3.6356   10.5380 O.2     1  LIG1       -0.2029
      8 O           7.1794    2.6372    9.1748 O.3     1  LIG1       -0.4371
      9 O           3.0100    9.5328    9.1784 O.2     1  LIG1       -0.1528
     10 O           3.6511    8.8589    6.8908 O.2     1  LIG1       -0.1528
     11 C           5.7592    9.0915   10.0384 C.3     1  LIG1        0.0667
     12 H           5.0332    9.5323   10.5077 H       1  LIG1        0.0510
     13 H           6.4555    9.7487    9.8863 H       1  LIG1        0.0510
     14 C           6.3084    7.9899   10.9125 C.2     1  LIG1        0.1026
     15 C           5.4759    6.8170   11.2615 C.ar    1  LIG1        0.0007
     16 C           4.0911    6.8714   11.1712 C.ar    1  LIG1       -0.0527
     17 H           3.6796    7.6338   10.8333 H       1  LIG1        0.0624
     18 C           3.3182    5.7931   11.5832 C.ar    1  LIG1       -0.0611
     19 H           2.3909    5.8416   11.5352 H       1  LIG1        0.0618
     20 C           3.9220    4.6531   12.0626 C.ar    1  LIG1       -0.0617
     21 H           3.4012    3.9349   12.3423 H       1  LIG1        0.0618
     22 C           5.2933    4.5739   12.1290 C.ar    1  LIG1       -0.0611
     23 H           5.6985    3.7983   12.4451 H       1  LIG1        0.0618
     24 C           6.0717    5.6439   11.7277 C.ar    1  LIG1       -0.0527
     25 H           6.9982    5.5813   11.7692 H       1  LIG1        0.0624
     26 C           6.3483    8.3015    7.7795 C.3     1  LIG1        0.0392
     27 H           7.0088    9.0114    7.7991 H       1  LIG1        0.0487
     28 H           5.9788    8.2598    6.8830 H       1  LIG1        0.0487
     29 C           7.0090    7.0002    8.1037 C.2     1  LIG1       -0.0692
     30 H           6.4677    6.2444    8.1531 H       1  LIG1        0.0583
     31 C           8.2888    6.8422    8.3226 C.2     1  LIG1       -0.0496
     32 H           8.8180    7.6054    8.2831 H       1  LIG1        0.0603
     33 C           8.9803    5.5622    8.6285 C.3     1  LIG1        0.1142
     34 H           9.7137    5.4332    8.0058 H       1  LIG1        0.0744
     35 H           9.3489    5.5987    9.5248 H       1  LIG1        0.0744
     36 C           8.0361    3.5813    9.5325 C.2     1  LIG1        0.5102
     37 C           6.9826    1.5625   10.1227 C.3     1  LIG1        0.0851
     38 H           7.6675    0.9002   10.0026 H       1  LIG1        0.0662
     39 H           6.1221    1.1617    9.9779 H       1  LIG1        0.0662
     40 H           7.0271    1.9108   11.0153 H       1  LIG1        0.0662
     41 C           4.5917   11.0893    7.8414 C.ar    1  LIG1        0.1055
     42 C           5.2197   11.3984    6.6555 C.ar    1  LIG1       -0.0351
     43 H           5.2638   10.7708    5.9706 H       1  LIG1        0.0637
     44 C           5.7854   12.6506    6.4933 C.ar    1  LIG1       -0.0570
     45 H           6.2096   12.8550    5.6908 H       1  LIG1        0.0621
     46 C           5.7375   13.6040    7.4864 C.ar    1  LIG1       -0.0503
     47 C           5.0852   13.2811    8.6619 C.ar    1  LIG1       -0.0570
     48 H           5.0293   13.9139    9.3416 H       1  LIG1        0.0621
     49 C           4.5142   12.0376    8.8472 C.ar    1  LIG1       -0.0351
     50 H           4.0790   11.8373    9.6449 H       1  LIG1        0.0637
     51 C           6.3724   14.9598    7.3150 C.3     1  LIG1       -0.0397
     52 H           7.3089   14.8535    7.1331 H       1  LIG1        0.0278
     53 H           6.2570   15.4706    8.1185 H       1  LIG1        0.0278
     54 H           5.9541   15.4180    6.5822 H       1  LIG1        0.0278
@<TRIPOS>BOND
     1    45    44    1
     2    43    42    1
     3    44    42   ar
     4    44    46   ar
     5    54    51    1
     6    42    41   ar
     7    28    26    1
     8    10     1    2
     9    52    51    1
    10    51    46    1
    11    51    53    1
    12    46    47   ar
    13    26    27    1
    14    26    29    1
    15    26     3    1
    16    41     1    1
    17    41    49   ar
    18    34    33    1
    19    29    30    1
    20    29    31    2
    21     1     3    1
    22     1     9    2
    23    32    31    1
    24    31    33    1
    25     6    33    1
    26     6    36    1
    27    33    35    1
    28    47    49   ar
    29    47    48    1
    30     3    11    1
    31    49    50    1
    32     8    36    1
    33     8    37    1
    34    36     7    2
    35    13    11    1
    36    39    37    1
    37    38    37    1
    38    11    12    1
    39    11    14    1
    40    37    40    1
    41    17    16    1
    42    14    15    1
    43    14     2    2
    44     4     2    1
    45     4     5    1
    46    16    15   ar
    47    16    18   ar
    48    15    24   ar
    49    19    18    1
    50    18    20   ar
    51    24    25    1
    52    24    22   ar
    53    20    22   ar
    54    20    21    1
    55    22    23    1
