@<TRIPOS>MOLECULE
C12 H28 N, C6 F4 O2, I
 54 50 0 0 0
SMALL
GASTEIGER

@<TRIPOS>ATOM
      1 C          -3.4695    8.0969    2.7374 C.3     1  LIG1       -0.0303
      2 H          -3.3207    8.9681    3.1836 H       1  LIG1        0.0815
      3 H          -4.2844    7.6948    3.1303 H       1  LIG1        0.0815
      4 C           3.4410    3.9352    0.4448 C.2     2  LIG2        0.2003
      5 C          -1.0258    7.6826    2.3346 C.3     1  LIG1       -0.0303
      6 H          -0.2815    7.0740    2.5729 H       1  LIG1        0.0815
      7 H          -1.1642    7.6109    1.3569 H       1  LIG1        0.0815
      8 C          -2.6802    6.2435    6.7494 C.3     1  LIG1       -0.0605
      9 H          -2.0015    5.5406    6.6750 H       1  LIG1        0.0232
     10 H          -3.4292    5.9183    7.2916 H       1  LIG1        0.0232
     11 H          -2.2872    7.0335    7.1759 H       1  LIG1        0.0232
     12 C          -3.1794    6.6116    5.3674 C.3     1  LIG1       -0.0153
     13 H          -3.9036    7.2825    5.4444 H       1  LIG1        0.0314
     14 H          -3.5503    5.8080    4.9240 H       1  LIG1        0.0314
     15 C          -2.0398    7.1814    4.5265 C.3     1  LIG1       -0.0303
     16 H          -1.8654    8.1102    4.8219 H       1  LIG1        0.0815
     17 H          -1.2223    6.6531    4.7057 H       1  LIG1        0.0815
     18 C          -4.9639    9.2081    1.0666 C.3     1  LIG1       -0.0605
     19 H          -5.1306    9.3330    0.1095 H       1  LIG1        0.0232
     20 H          -4.8263   10.0801    1.4916 H       1  LIG1        0.0232
     21 H          -5.7345    8.7625    1.4774 H       1  LIG1        0.0232
     22 C          -3.7146    8.3435    1.2592 C.3     1  LIG1       -0.0153
     23 H          -3.8333    7.4791    0.7922 H       1  LIG1        0.0314
     24 H          -2.9302    8.8019    0.8638 H       1  LIG1        0.0314
     25 C          -0.5999    9.0989    2.6511 C.3     1  LIG1       -0.0153
     26 H          -0.2178    9.1407    3.5635 H       1  LIG1        0.0314
     27 H          -1.3834    9.7030    2.6139 H       1  LIG1        0.0314
     28 C           0.4443    9.5370    1.6298 C.3     1  LIG1       -0.0605
     29 H           0.0412    9.5515    0.7363 H       1  LIG1        0.0232
     30 H           1.1952    8.9081    1.6392 H       1  LIG1        0.0232
     31 H           0.7666   10.4346    1.8565 H       1  LIG1        0.0232
     32 C          -2.5882    5.7858    2.5139 C.3     1  LIG1       -0.0303
     33 H          -3.5249    5.5628    2.7443 H       1  LIG1        0.0815
     34 H          -2.5224    5.8009    1.5259 H       1  LIG1        0.0815
     35 C          -2.0166    3.3861    2.2948 C.3     1  LIG1       -0.0605
     36 H          -1.8767    3.5155    1.3331 H       1  LIG1        0.0232
     37 H          -2.9516    3.1412    2.4580 H       1  LIG1        0.0232
     38 H          -1.4303    2.6706    2.6168 H       1  LIG1        0.0232
     39 C          -1.6935    4.6795    3.0339 C.3     1  LIG1       -0.0153
     40 H          -1.8404    4.5578    4.0050 H       1  LIG1        0.0314
     41 H          -0.7442    4.9206    2.8907 H       1  LIG1        0.0314
     42 F          -0.6613    2.8057    5.6885 F       3  LIG3       -0.1982
     43 O           0.8283    1.4507    3.8505 O.2     3  LIG3       -0.2806
     44 C           1.3980    2.2171    4.6471 C.2     3  LIG3        0.2660
     45 I           2.4327    6.2381    3.5742 I       4  LIG4        0.0000
     46 N          -2.2888    7.1913    3.0347 N.4     1  LIG1        0.2433
     47 C           0.6315    2.9905    5.6407 C.2     3  LIG3        0.2116
     48 O           0.1906    5.3655    0.3862 O.2     2  LIG2       -0.2806
     49 F           0.5492    4.5631    7.3558 F       3  LIG3       -0.1992
     50 C           1.2563    3.8776    6.4551 C.2     3  LIG3        0.2003
     51 F           1.4628    3.2241    1.4512 F       2  LIG2       -0.1982
     52 C           2.1556    4.1115    0.7480 C.2     2  LIG2        0.2116
     53 C           1.3967    5.2827    0.2700 C.2     2  LIG2        0.2660
     54 F           4.1206    2.8683    0.8618 F       2  LIG2       -0.1992
@<TRIPOS>BOND
     1    19    18    1
     2    53    48    2
     3    53    52    1
     4     4    52    2
     5     4    54    1
     6    29    28    1
     7    52    51    1
     8    23    22    1
     9    24    22    1
    10    18    22    1
    11    18    21    1
    12    18    20    1
    13    22     1    1
    14    36    35    1
    15     7     5    1
    16    34    32    1
    17    28    30    1
    18    28    31    1
    19    28    25    1
    20    35    37    1
    21    35    38    1
    22    35    39    1
    23     5     6    1
    24     5    25    1
    25     5    46    1
    26    32    33    1
    27    32    39    1
    28    32    46    1
    29    27    25    1
    30    25    26    1
    31     1    46    1
    32     1     3    1
    33     1     2    1
    34    41    39    1
    35    39    40    1
    36    46    15    1
    37    43    44    2
    38    15    17    1
    39    15    16    1
    40    15    12    1
    41    44    47    1
    42    14    12    1
    43    12    13    1
    44    12     8    1
    45    47    42    1
    46    47    50    2
    47    50    49    1
    48     9     8    1
    49     8    11    1
    50     8    10    1
