@<TRIPOS>MOLECULE
C14 H16 F5 N O
 37 38 0 0 0
SMALL
GASTEIGER

@<TRIPOS>ATOM
      1 F           6.0694    0.8695    2.4503 F       1  LIG1       -0.1958
      2 F           4.9705    1.5800    0.7109 F       1  LIG1       -0.1958
      3 F           8.0955    2.5945    1.8882 F       1  LIG1       -0.1650
      4 F           7.5969    1.2748    0.2665 F       1  LIG1       -0.1650
      5 F           7.0124    3.3385    0.1778 F       1  LIG1       -0.1650
      6 O           6.5301    3.3839    9.3512 O.3     1  LIG1       -0.4951
      7 N           3.8887    3.6967    4.4380 N.pl3   1  LIG1       -0.3266
      8 C           5.5176    2.5690    5.8786 C.ar    1  LIG1       -0.0372
      9 H           5.7124    1.9441    5.1899 H       1  LIG1        0.0637
     10 C           6.1909    2.4754    7.0940 C.ar    1  LIG1       -0.0182
     11 H           6.8329    1.7879    7.2276 H       1  LIG1        0.0655
     12 C           5.9279    3.3817    8.1106 C.ar    1  LIG1        0.1202
     13 C           4.9766    4.3763    7.9005 C.ar    1  LIG1       -0.0182
     14 H           4.7892    4.9994    8.5928 H       1  LIG1        0.0655
     15 C           4.3001    4.4699    6.6958 C.ar    1  LIG1       -0.0372
     16 H           3.6523    5.1540    6.5746 H       1  LIG1        0.0637
     17 C           4.5574    3.5673    5.6498 C.ar    1  LIG1        0.0301
     18 C           7.4567    2.3321    9.6055 C.3     1  LIG1        0.0788
     19 H           8.2133    2.4065    8.9866 H       1  LIG1        0.0660
     20 H           7.0137    1.4676    9.4770 H       1  LIG1        0.0660
     21 H           7.7820    2.3987   10.5277 H       1  LIG1        0.0660
     22 C           2.7148    4.5429    4.2831 C.3     1  LIG1        0.0125
     23 H           2.9338    5.4918    4.4625 H       1  LIG1        0.0464
     24 H           1.9878    4.2588    4.8920 H       1  LIG1        0.0464
     25 C           2.3219    4.3389    2.8314 C.3     1  LIG1       -0.0355
     26 H           2.8181    4.9554    2.2365 H       1  LIG1        0.0281
     27 H           1.3501    4.4748    2.7012 H       1  LIG1        0.0281
     28 C           2.7171    2.8802    2.5711 C.3     1  LIG1       -0.0328
     29 H           2.8523    2.7136    1.6045 H       1  LIG1        0.0284
     30 H           2.0288    2.2568    2.9140 H       1  LIG1        0.0284
     31 C           4.0347    2.7335    3.3483 C.3     1  LIG1        0.0293
     32 H           4.1178    1.8069    3.7151 H       1  LIG1        0.0501
     33 C           5.2892    3.0944    2.5202 C.3     1  LIG1        0.0383
     34 H           5.0650    3.8496    1.9208 H       1  LIG1        0.0344
     35 H           5.9973    3.4036    3.1388 H       1  LIG1        0.0344
     36 C           5.8348    1.9728    1.6916 C.3     1  LIG1        0.3432
     37 C           7.1645    2.2974    0.9877 C.3     1  LIG1        0.4539
@<TRIPOS>BOND
     1     5    37    1
     2     4    37    1
     3     2    36    1
     4    37    36    1
     5    37     3    1
     6    29    28    1
     7    36     1    1
     8    36    33    1
     9    34    33    1
    10    26    25    1
    11    33    35    1
    12    33    31    1
    13    28    25    1
    14    28    30    1
    15    28    31    1
    16    27    25    1
    17    25    22    1
    18    31    32    1
    19    31     7    1
    20    22     7    1
    21    22    23    1
    22    22    24    1
    23     7    17    1
    24     9     8    1
    25    17     8   ar
    26    17    15   ar
    27     8    10   ar
    28    16    15    1
    29    15    13   ar
    30    10    11    1
    31    10    12   ar
    32    13    12   ar
    33    13    14    1
    34    12     6    1
    35    19    18    1
    36     6    18    1
    37    20    18    1
    38    18    21    1
