@<TRIPOS>MOLECULE
C19 H26 O5
 50 53 0 0 0
SMALL
GASTEIGER

@<TRIPOS>ATOM
      1 O           5.3543    3.2259   13.5451 O.2     1  LIG1       -0.2927
      2 O           6.4779    2.8084   19.1347 O.3     1  LIG1       -0.3941
      3 H           6.0467    3.1706   19.7309 H       1  LIG1        0.2094
      4 O           5.0468    4.4974   20.5098 O.3     1  LIG1       -0.3914
      5 H           4.6393    4.4002   21.2147 H       1  LIG1        0.2098
      6 O           2.3466    8.5410   21.5521 O.3     1  LIG1       -0.3911
      7 H           1.7315    8.5961   21.0128 H       1  LIG1        0.2098
      8 O           6.3906    8.8280   20.0301 O.3     1  LIG1       -0.3874
      9 H           6.3842    9.5370   19.6188 H       1  LIG1        0.2102
     10 C           5.5903    3.5362   14.7085 C.2     1  LIG1        0.1564
     11 C           5.1879    2.6865   15.8800 C.3     1  LIG1        0.0108
     12 H           5.9521    2.1765   16.1906 H       1  LIG1        0.0345
     13 H           4.4977    2.0618   15.6078 H       1  LIG1        0.0345
     14 C           4.6621    3.5743   17.0179 C.3     1  LIG1       -0.0339
     15 H           4.3779    3.0137   17.7569 H       1  LIG1        0.0279
     16 H           3.8902    4.0722   16.7060 H       1  LIG1        0.0279
     17 C           5.7408    4.5597   17.5094 C.3     1  LIG1        0.0251
     18 C           5.0746    5.6695   18.3927 C.3     1  LIG1        0.0057
     19 H           4.4495    6.1297   17.7944 H       1  LIG1        0.0342
     20 C           4.2224    5.2010   19.5754 C.3     1  LIG1        0.0602
     21 H           3.5406    4.5828   19.2387 H       1  LIG1        0.0597
     22 C           3.5157    6.3904   20.2201 C.3     1  LIG1       -0.0161
     23 H           3.0159    6.0702   20.9871 H       1  LIG1        0.0297
     24 H           2.8757    6.7472   19.5843 H       1  LIG1        0.0297
     25 C           4.4356    7.5435   20.6846 C.3     1  LIG1        0.0255
     26 C           3.5796    8.8176   20.8956 C.3     1  LIG1        0.0634
     27 H           4.0910    9.4232   21.4717 H       1  LIG1        0.0599
     28 C           3.4493    9.4893   19.5182 C.3     1  LIG1       -0.0236
     29 H           2.5418    9.4074   19.1855 H       1  LIG1        0.0291
     30 H           3.6736   10.4313   19.5779 H       1  LIG1        0.0291
     31 C           4.4300    8.7623   18.5877 C.3     1  LIG1       -0.0205
     32 H           4.9380    9.3993   18.0617 H       1  LIG1        0.0294
     33 H           3.9534    8.1698   17.9852 H       1  LIG1        0.0294
     34 C           5.3574    7.9619   19.5119 C.3     1  LIG1        0.0805
     35 C           6.0673    6.7569   18.8474 C.3     1  LIG1        0.0129
     36 H           6.6593    6.3553   19.5175 H       1  LIG1        0.0375
     37 C           6.9214    7.2099   17.7026 C.2     1  LIG1       -0.0775
     38 H           7.4022    8.0007   17.7971 H       1  LIG1        0.0576
     39 C           7.0283    6.5365   16.5525 C.2     1  LIG1       -0.0614
     40 H           7.5542    6.8976   15.8755 H       1  LIG1        0.0617
     41 C           6.3640    5.2693   16.3092 C.2     1  LIG1       -0.0356
     42 C           6.3052    4.7654   15.0573 C.2     1  LIG1       -0.0154
     43 H           6.7439    5.2255   14.3784 H       1  LIG1        0.0655
     44 C           6.9018    3.7869   18.1974 C.3     1  LIG1        0.0542
     45 H           7.4338    3.3512   17.5130 H       1  LIG1        0.0566
     46 H           7.4739    4.4250   18.6516 H       1  LIG1        0.0566
     47 C           5.2005    7.2030   21.9706 C.3     1  LIG1       -0.0545
     48 H           4.5778    6.9531   22.6572 H       1  LIG1        0.0237
     49 H           5.7026    7.9691   22.2572 H       1  LIG1        0.0237
     50 H           5.8005    6.4722   21.8021 H       1  LIG1        0.0237
@<TRIPOS>BOND
     1     1    10    2
     2    43    42    1
     3    10    42    1
     4    10    11    1
     5    42    41    2
     6    13    11    1
     7    40    39    1
     8    11    12    1
     9    11    14    1
    10    41    39    1
    11    41    17    1
    12    39    37    2
    13    16    14    1
    14    14    17    1
    15    14    15    1
    16    17    44    1
    17    17    18    1
    18    45    44    1
    19    37    38    1
    20    37    35    1
    21    19    18    1
    22    33    31    1
    23    32    31    1
    24    44    46    1
    25    44     2    1
    26    18    35    1
    27    18    20    1
    28    31    34    1
    29    31    28    1
    30    35    34    1
    31    35    36    1
    32     2     3    1
    33    29    28    1
    34    21    20    1
    35    34     8    1
    36    34    25    1
    37    28    30    1
    38    28    26    1
    39    20    22    1
    40    20     4    1
    41    24    22    1
    42     9     8    1
    43    22    25    1
    44    22    23    1
    45     4     5    1
    46    25    26    1
    47    25    47    1
    48    26    27    1
    49    26     6    1
    50     7     6    1
    51    50    47    1
    52    47    49    1
    53    47    48    1
