@<TRIPOS>MOLECULE
C6 H3 F2 I, C6 H12 N2
 32 33 0 0 0
SMALL
GASTEIGER

@<TRIPOS>ATOM
      1 I           4.7895    2.2902    4.3677 I       1  LIG1       -0.0436
      2 F           8.6452    1.1062    0.7453 F       1  LIG1       -0.2054
      3 F           9.6932    4.4328    3.8697 F       1  LIG1       -0.2054
      4 C           6.6735    2.4984    3.4361 C.ar    1  LIG1        0.0188
      5 C           7.0246    1.6996    2.3433 C.ar    1  LIG1       -0.0131
      6 H           6.4182    1.0870    1.9769 H       1  LIG1        0.0657
      7 C           8.2927    1.8699    1.8089 C.ar    1  LIG1        0.1271
      8 C           9.2196    2.7734    2.2775 C.ar    1  LIG1        0.0089
      9 H          10.0490    2.8835    1.8667 H       1  LIG1        0.0675
     10 C           8.8153    3.5311    3.3654 C.ar    1  LIG1        0.1271
     11 C           7.5707    3.4220    3.9585 C.ar    1  LIG1       -0.0131
     12 H           7.3461    3.9459    4.6990 H       1  LIG1        0.0657
     13 N           2.3777    1.9241    5.8065 N.3     2  LIG2       -0.2987
     14 N           0.2569    1.4728    7.1860 N.3     2  LIG2       -0.2987
     15 C           1.1848    2.0627    4.9656 C.3     2  LIG2        0.0118
     16 H           1.2643    1.4731    4.1743 H       2  LIG2        0.0439
     17 H           1.1075    2.9974    4.6478 H       2  LIG2        0.0439
     18 C          -0.0838    1.6798    5.7769 C.3     2  LIG2        0.0118
     19 H          -0.7572    2.4017    5.7013 H       2  LIG2        0.0439
     20 H          -0.4781    0.8508    5.4061 H       2  LIG2        0.0439
     21 C           0.9446    2.6549    7.6791 C.3     2  LIG2        0.0118
     22 H           1.1322    2.5487    8.6450 H       2  LIG2        0.0439
     23 H           0.3614    3.4470    7.5654 H       2  LIG2        0.0439
     24 C           2.2810    2.8831    6.9152 C.3     2  LIG2        0.0118
     25 H           2.3129    3.8074    6.5631 H       2  LIG2        0.0439
     26 H           3.0453    2.7602    7.5326 H       2  LIG2        0.0439
     27 C           2.4094    0.5641    6.3590 C.3     2  LIG2        0.0118
     28 H           3.2354    0.4401    6.8911 H       2  LIG2        0.0439
     29 H           2.4160   -0.0949    5.6212 H       2  LIG2        0.0439
     30 C           1.1678    0.3274    7.2589 C.3     2  LIG2        0.0118
     31 H           0.6959   -0.4913    6.9632 H       2  LIG2        0.0439
     32 H           1.4582    0.1935    8.1964 H       2  LIG2        0.0439
@<TRIPOS>BOND
     1     2     7    1
     2     7     8   ar
     3     7     5   ar
     4     9     8    1
     5     6     5    1
     6     8    10   ar
     7     5     4   ar
     8    10     3    1
     9    10    11   ar
    10     4    11   ar
    11     4     1    1
    12    11    12    1
    13    16    15    1
    14    17    15    1
    15    15    18    1
    16    15    13    1
    17    20    18    1
    18    29    27    1
    19    19    18    1
    20    18    14    1
    21    13    27    1
    22    13    24    1
    23    27    28    1
    24    27    30    1
    25    25    24    1
    26    24    26    1
    27    24    21    1
    28    31    30    1
    29    14    30    1
    30    14    21    1
    31    30    32    1
    32    23    21    1
    33    21    22    1
