@<TRIPOS>MOLECULE
4d
 87 90 0 0 0
SMALL
GASTEIGER

@<TRIPOS>ATOM
      1 F           9.1785    6.0749    6.7252 F       1  LIG1       -0.2015
      2 F          11.9571    5.9625   10.5362 F       1  LIG1       -0.2015
      3 F          11.3387    6.3967    5.1567 F       1  LIG1       -0.1993
      4 F          13.8254    6.5294    6.2703 F       1  LIG1       -0.1993
      5 F          14.1166    6.3087    8.9590 F       1  LIG1       -0.1993
      6 O           8.7432    6.9465    9.8628 O.2     1  LIG1       -0.2894
      7 N           7.6530    4.4491   10.7027 N.pl3   1  LIG1       -0.3086
      8 C           6.9339    5.5389   11.3472 C.ar    1  LIG1        0.0379
      9 C           8.7517    4.5761    9.9082 C.3     1  LIG1        0.1331
     10 C           8.1150    2.2693    9.9442 C.3     1  LIG1       -0.0238
     11 H           7.5753    2.0510    9.1440 H       1  LIG1        0.0292
     12 H           8.4547    1.4246   10.3334 H       1  LIG1        0.0292
     13 C          11.7795    6.0309    9.1982 C.ar    1  LIG1        0.1747
     14 C          11.4529    1.3986    8.5767 C.3     1  LIG1       -0.0530
     15 H          12.1231    2.0722    8.3004 H       1  LIG1        0.0265
     16 H          11.8213    0.5009    8.3828 H       1  LIG1        0.0265
     17 C           9.2940    3.1898    9.5568 C.3     1  LIG1        0.0038
     18 C           7.2586    3.0155   10.9719 C.3     1  LIG1        0.0310
     19 C           7.3977    6.0244   12.5793 C.ar    1  LIG1       -0.0235
     20 C          11.1864    1.5281   10.0798 C.3     1  LIG1       -0.0525
     21 H          12.0356    1.4246   10.5787 H       1  LIG1        0.0265
     22 H          10.5700    0.8105   10.3719 H       1  LIG1        0.0265
     23 C          11.4839    6.2867    6.4843 C.ar    1  LIG1        0.1971
     24 C          10.1690    1.6030    7.7793 C.3     1  LIG1       -0.0525
     25 H           9.5003    0.9204    8.0388 H       1  LIG1        0.0265
     26 H          10.3556    1.5045    6.8127 H       1  LIG1        0.0265
     27 C          12.7470    6.3331    7.0451 C.ar    1  LIG1        0.1991
     28 C           9.2601    5.8542    9.5449 C.2     1  LIG1        0.1953
     29 C           9.6187    3.0016    8.0609 C.3     1  LIG1       -0.0448
     30 H           8.7981    3.1442    7.5264 H       1  LIG1        0.0271
     31 H          10.2856    3.6785    7.7826 H       1  LIG1        0.0271
     32 C           5.7687    2.7825   10.7324 C.3     1  LIG1       -0.0438
     33 H           5.2478    3.3372   11.3509 H       1  LIG1        0.0250
     34 H           5.5584    1.8376   10.8842 H       1  LIG1        0.0250
     35 H           5.5453    3.0236    9.8101 H       1  LIG1        0.0250
     36 C           5.0805    7.0402   11.3984 C.ar    1  LIG1       -0.0566
     37 H           4.3028    7.4116   10.9977 H       1  LIG1        0.0621
     38 C          10.5685    2.8982   10.3926 C.3     1  LIG1       -0.0448
     39 H          11.2394    3.6036   10.2127 H       1  LIG1        0.0271
     40 H          10.3381    2.9365   11.3545 H       1  LIG1        0.0271
     41 C           5.8021    6.0733   10.7088 C.ar    1  LIG1       -0.0235
     42 C          10.3935    6.1238    7.3013 C.ar    1  LIG1        0.1747
     43 C          10.5020    5.9527    8.6745 C.ar    1  LIG1        0.0958
     44 C           5.4217    5.7466    9.2776 C.3     1  LIG1       -0.0198
     45 H           5.9828    4.9769    8.9738 H       1  LIG1        0.0344
     46 C          12.8947    6.2093    8.4047 C.ar    1  LIG1        0.1971
     47 C           8.7441    5.6619   13.1691 C.3     1  LIG1       -0.0198
     48 H           9.1350    4.9256   12.6153 H       1  LIG1        0.0344
     49 C           6.6165    6.9840   13.2186 C.ar    1  LIG1       -0.0566
     50 H           6.8906    7.3065   14.0701 H       1  LIG1        0.0621
     51 C           5.4683    7.4776   12.6611 C.ar    1  LIG1       -0.0611
     52 H           4.9416    8.1121   13.1314 H       1  LIG1        0.0618
     53 C           7.5725    2.6253   12.4168 C.3     1  LIG1       -0.0438
     54 H           8.5269    2.7670   12.5934 H       1  LIG1        0.0250
     55 H           7.3522    1.6804   12.5549 H       1  LIG1        0.0250
     56 H           7.0416    3.1776   13.0271 H       1  LIG1        0.0250
     57 C           7.7295    3.5734    4.6461 C.ar    2  LIG2       -0.0504
     58 C           8.6699    5.1699   14.6240 C.3     1  LIG1       -0.0586
     59 H           8.3628    5.8998   15.2010 H       1  LIG1        0.0235
     60 H           9.5594    4.8751   14.9155 H       1  LIG1        0.0235
     61 H           8.0412    4.4197   14.6831 H       1  LIG1        0.0235
     62 C           5.9432    3.3323    6.2418 C.ar    2  LIG2       -0.0615
     63 H           5.2128    3.7135    6.7139 H       2  LIG2        0.0618
     64 C           6.6769    4.1184    5.3653 C.ar    2  LIG2       -0.0588
     65 H           6.4553    5.0355    5.2573 H       2  LIG2        0.0620
     66 C           5.7280    6.9497    8.3718 C.3     1  LIG1       -0.0586
     67 H           5.1734    7.7122    8.6426 H       1  LIG1        0.0235
     68 H           5.5300    6.7168    7.4404 H       1  LIG1        0.0235
     69 H           6.6741    7.1892    8.4560 H       1  LIG1        0.0235
     70 C           3.9465    5.3491    9.1349 C.3     1  LIG1       -0.0586
     71 H           3.7603    4.5778    9.7113 H       1  LIG1        0.0235
     72 H           3.7603    5.1129    8.2034 H       1  LIG1        0.0235
     73 H           3.3775    6.1010    9.4020 H       1  LIG1        0.0235
     74 C           9.6961    6.8707   13.0874 C.3     1  LIG1       -0.0586
     75 H           9.7497    7.1827   12.1597 H       1  LIG1        0.0235
     76 H          10.5875    6.6060   13.3949 H       1  LIG1        0.0235
     77 H           9.3559    7.5932   13.6565 H       1  LIG1        0.0235
     78 C           8.0172    2.2262    4.8620 C.ar    2  LIG2       -0.0588
     79 H           8.7325    1.8230    4.3844 H       2  LIG2        0.0620
     80 C           6.2562    2.0144    6.4358 C.ar    2  LIG2       -0.0617
     81 H           5.7553    1.4857    7.0451 H       2  LIG2        0.0618
     82 C           7.2931    1.4703    5.7477 C.ar    2  LIG2       -0.0615
     83 H           7.5184    0.5572    5.8813 H       2  LIG2        0.0618
     84 C           8.5400    4.4246    3.7001 C.3     2  LIG2       -0.0397
     85 H           8.4022    4.1118    2.7814 H       2  LIG2        0.0278
     86 H           9.4894    4.3554    3.9325 H       2  LIG2        0.0278
     87 H           8.2513    5.3581    3.7733 H       2  LIG2        0.0278
@<TRIPOS>BOND
     1    85    84    1
     2    84    87    1
     3    84    86    1
     4    84    57    1
     5    79    78    1
     6    57    78   ar
     7    57    64   ar
     8    78    82   ar
     9     3    23    1
    10    65    64    1
    11    64    62   ar
    12    82    83    1
    13    82    80   ar
    14    62    80   ar
    15    62    63    1
    16     4    27    1
    17    80    81    1
    18    23    27   ar
    19    23    42   ar
    20     1    42    1
    21    26    24    1
    22    27    46   ar
    23    42    43   ar
    24    68    66    1
    25    30    29    1
    26    24    25    1
    27    24    29    1
    28    24    14    1
    29    31    29    1
    30    29    17    1
    31    72    70    1
    32    15    14    1
    33    66    69    1
    34    66    67    1
    35    66    44    1
    36    16    14    1
    37    46     5    1
    38    46    13   ar
    39    14    20    1
    40    43    13   ar
    41    43    28    1
    42    45    44    1
    43    70    44    1
    44    70    73    1
    45    70    71    1
    46    11    10    1
    47    13     2    1
    48    44    41    1
    49    28     6    2
    50    28     9    1
    51    17     9    1
    52    17    10    1
    53    17    38    1
    54    35    32    1
    55     9     7    1
    56    10    12    1
    57    10    18    1
    58    20    22    1
    59    20    38    1
    60    20    21    1
    61    39    38    1
    62    38    40    1
    63     7    18    1
    64     7     8    1
    65    41     8   ar
    66    41    36   ar
    67    32    34    1
    68    32    18    1
    69    32    33    1
    70    18    53    1
    71    37    36    1
    72     8    19   ar
    73    36    51   ar
    74    75    74    1
    75    53    55    1
    76    53    54    1
    77    53    56    1
    78    19    47    1
    79    19    49   ar
    80    48    47    1
    81    51    52    1
    82    51    49   ar
    83    74    47    1
    84    74    76    1
    85    74    77    1
    86    47    58    1
    87    49    50    1
    88    58    61    1
    89    58    60    1
    90    58    59    1
