@<TRIPOS>MOLECULE
2,2,2-trifluoro-N-((S)-2-(methoxymethyl)pyrrolidin-1-yl)-N-((2R,3R)-3-phenylpent-4-en-2-yl)acetamide
 51 52 0 0 0
SMALL
GASTEIGER

@<TRIPOS>ATOM
      1 F           2.9865    2.8971   11.6635 F       1  LIG1       -0.1620
      2 F           3.5309    4.9726   11.3763 F       1  LIG1       -0.1620
      3 F           1.9316    4.4429   12.7044 F       1  LIG1       -0.1620
      4 O           3.6323    4.3391   14.5928 O.2     1  LIG1       -0.2644
      5 N           5.7111    3.1479   12.0101 N.3     1  LIG1       -0.2186
      6 O           7.5511    5.4550    9.7304 O.3     1  LIG1       -0.3814
      7 N           5.3602    3.6053   13.3041 N.am    1  LIG1       -0.2230
      8 C           8.0015    4.3150   18.6946 C.ar    1  LIG1       -0.0615
      9 H           7.7044    4.3620   19.5957 H       1  LIG1        0.0618
     10 C           7.5405    4.5339   16.3314 C.ar    1  LIG1       -0.0387
     11 C           6.2893    3.4300   14.4558 C.3     1  LIG1        0.0500
     12 H           7.1686    3.1332   14.0843 H       1  LIG1        0.0522
     13 C           6.5369    4.7700   15.2102 C.3     1  LIG1        0.0218
     14 H           5.6721    5.0473   15.6293 H       1  LIG1        0.0410
     15 C           9.3037    3.9473   18.4190 C.ar    1  LIG1       -0.0617
     16 H           9.8947    3.7200   19.1273 H       1  LIG1        0.0618
     17 C           3.1495    4.0674   12.2800 C.3     1  LIG1        0.4709
     18 C           4.0959    4.0113   13.5137 C.2     1  LIG1        0.3337
     19 C           8.8692    4.2010   16.0618 C.ar    1  LIG1       -0.0579
     20 H           9.1761    4.1720   15.1628 H       1  LIG1        0.0620
     21 C           7.1224    4.6164   17.6586 C.ar    1  LIG1       -0.0579
     22 H           6.2318    4.8802   17.8580 H       1  LIG1        0.0620
     23 C           6.9768    5.8796   14.2929 C.2     1  LIG1       -0.0819
     24 H           7.8484    5.8288   13.9181 H       1  LIG1        0.0573
     25 C           6.6294    1.5393   10.6108 C.3     1  LIG1       -0.0371
     26 H           6.0368    1.6832    9.8309 H       1  LIG1        0.0279
     27 H           7.0574    0.6493   10.5354 H       1  LIG1        0.0279
     28 C           6.4615    4.8692   10.4379 C.3     1  LIG1        0.0644
     29 H           5.8326    4.4642    9.7893 H       1  LIG1        0.0576
     30 H           5.9759    5.5776   10.9301 H       1  LIG1        0.0576
     31 C           6.9204    3.7988   11.4235 C.3     1  LIG1        0.0517
     32 H           7.4846    4.2033   12.1427 H       1  LIG1        0.0502
     33 C           9.7473    3.9109   17.1018 C.ar    1  LIG1       -0.0615
     34 H          10.6512    3.6875   16.9118 H       1  LIG1        0.0618
     35 C           7.6723    2.6504   10.7301 C.3     1  LIG1       -0.0324
     36 H           7.9966    2.9289    9.8366 H       1  LIG1        0.0282
     37 H           8.4444    2.3541   11.2739 H       1  LIG1        0.0282
     38 C           5.8695    1.6774   11.9138 C.3     1  LIG1        0.0174
     39 H           4.9922    1.2204   11.8726 H       1  LIG1        0.0443
     40 H           6.3891    1.3177   12.6753 H       1  LIG1        0.0443
     41 C           5.7939    2.3188   15.3929 C.3     1  LIG1       -0.0441
     42 H           4.9799    2.6162   15.8503 H       1  LIG1        0.0248
     43 H           6.4870    2.1173   16.0562 H       1  LIG1        0.0248
     44 H           5.5989    1.5137   14.8700 H       1  LIG1        0.0248
     45 C           8.2600    6.4158   10.4884 C.3     1  LIG1        0.0365
     46 H           8.9531    6.8256    9.9291 H       1  LIG1        0.0523
     47 H           8.6790    5.9791   11.2607 H       1  LIG1        0.0523
     48 H           7.6410    7.1081   10.8017 H       1  LIG1        0.0523
     49 C           6.2253    6.9189   13.9765 C.2     1  LIG1       -0.1020
     50 H           5.3486    6.9975   14.3336 H       1  LIG1        0.0532
     51 H           6.5603    7.5878   13.3912 H       1  LIG1        0.0532
@<TRIPOS>BOND
     1     6    28    1
     2     6    45    1
     3    29    28    1
     4    26    25    1
     5    36    35    1
     6    46    45    1
     7    28    30    1
     8    28    31    1
     9    45    48    1
    10    45    47    1
    11    27    25    1
    12    25    35    1
    13    25    38    1
    14    35    37    1
    15    35    31    1
    16     2    17    1
    17    31     5    1
    18    31    32    1
    19     1    17    1
    20    39    38    1
    21    38     5    1
    22    38    40    1
    23     5     7    1
    24    17     3    1
    25    17    18    1
    26     7    18   am
    27     7    11    1
    28    51    49    1
    29    18     4    2
    30    24    23    1
    31    49    23    2
    32    49    50    1
    33    12    11    1
    34    23    13    1
    35    11    13    1
    36    11    41    1
    37    44    41    1
    38    20    19    1
    39    13    14    1
    40    13    10    1
    41    41    42    1
    42    41    43    1
    43    19    10   ar
    44    19    33   ar
    45    10    21   ar
    46    34    33    1
    47    33    15   ar
    48    21    22    1
    49    21     8   ar
    50    15     8   ar
    51    15    16    1
    52     8     9    1
