@<TRIPOS>MOLECULE
4129550.cif
 68 67 0 0 0
SMALL
GASTEIGER

@<TRIPOS>ATOM
      1 C           4.6526    2.9429    4.3599 C.3     1  LIG1        0.0000
      2 H           5.5545    2.7826    4.0097 H       1  LIG1        0.0000
      3 C           4.6526    4.2781    4.9876 C.3     1  LIG1        0.0000
      4 H           3.7627    4.4878    5.3121 H       1  LIG1        0.0000
      5 H           4.9028    4.9481    4.3328 H       1  LIG1        0.0000
      6 C           4.3488    1.8486    5.3335 C.3     1  LIG1        0.0000
      7 H           4.3997    0.9918    4.8837 H       1  LIG1        0.0000
      8 H           3.4456    1.9583    5.6708 H       1  LIG1        0.0000
      9 C           5.3524    3.2068    7.1227 C.3     1  LIG1        0.0000
     10 H           6.0214    3.2128    7.8244 H       1  LIG1        0.0000
     11 H           4.4907    3.3767    7.5341 H       1  LIG1        0.0000
     12 C           5.6508    4.2950    6.1605 C.3     1  LIG1        0.0000
     13 H           6.5527    4.1877    5.8189 H       1  LIG1        0.0000
     14 H           5.6013    5.1518    6.6145 H       1  LIG1        0.0000
     15 C           5.3297    1.8727    6.4950 C.3     1  LIG1        0.0000
     16 H           5.0701    1.2087    7.1526 H       1  LIG1        0.0000
     17 H           6.2168    1.6498    6.1733 H       1  LIG1        0.0000
     18 N           3.7052    2.9079    3.1998 N.4     1  LIG1        1.0000
     19 H           2.8769    3.0634    3.4873 H       1  LIG1        0.0000
     20 H           3.7387    2.1065    2.8126 H       1  LIG1        0.0000
     21 H           3.9354    3.5321    2.6091 H       1  LIG1        0.0000
     22 O           1.4278    0.8930    3.2283 O.3     2  LIG2        0.0000
     23 O           3.9541    0.1579    2.2475 O.3     2  LIG2        0.0000
     24 O           5.4059    2.1692    0.8669 O.3     2  LIG2        0.0000
     25 O           4.9831    4.9084    1.4775 O.3     2  LIG2        0.0000
     26 O           0.9736    3.6334    3.9132 O.3     2  LIG2        0.0000
     27 O           2.4353    5.5627    2.4539 O.3     2  LIG2        0.0000
     28 C           1.5696    5.9243    3.4973 C.3     2  LIG2        0.0000
     29 H           1.2083    6.8100    3.3364 H       2  LIG2        0.0000
     30 H           2.0513    5.9399    4.3385 H       2  LIG2        0.0000
     31 C           4.7529   -0.0976    1.0932 C.3     2  LIG2        0.0000
     32 H           4.2164    0.0036    0.2918 H       2  LIG2        0.0000
     33 H           5.0915   -1.0063    1.1202 H       2  LIG2        0.0000
     34 C          -0.0415    2.6560    3.8574 C.3     2  LIG2        0.0000
     35 H          -0.4108    2.6211    2.9607 H       2  LIG2        0.0000
     36 H          -0.7547    2.8898    4.4709 H       2  LIG2        0.0000
     37 C           5.8809    0.8616    1.0704 C.3     2  LIG2        0.0000
     38 H           6.3627    0.8171    1.9116 H       2  LIG2        0.0000
     39 H           6.4965    0.6242    0.3587 H       2  LIG2        0.0000
     40 C           4.2886    6.0845    1.0747 C.3     2  LIG2        0.0000
     41 H           3.7413    5.8929    0.2975 H       2  LIG2        0.0000
     42 H           4.9255    6.7763    0.8341 H       2  LIG2        0.0000
     43 C           0.4590    4.9228    3.5628 C.3     2  LIG2        0.0000
     44 H          -0.1940    5.2024    4.2232 H       2  LIG2        0.0000
     45 H           0.0147    4.8722    2.7016 H       2  LIG2        0.0000
     46 C           2.0152   -0.3543    3.5258 C.3     2  LIG2        0.0000
     47 H           1.3247   -1.0195    3.6681 H       2  LIG2        0.0000
     48 H           2.5437   -0.2856    4.3371 H       2  LIG2        0.0000
     49 C           6.4443    3.1308    0.8469 C.3     2  LIG2        0.0000
     50 H           7.1281    2.8645    0.2121 H       2  LIG2        0.0000
     51 H           6.8511    3.1959    1.7252 H       2  LIG2        0.0000
     52 C           3.4443    6.5509    2.1721 C.3     2  LIG2        0.0000
     53 H           3.9862    6.7028    2.9621 H       2  LIG2        0.0000
     54 H           3.0228    7.3897    1.9273 H       2  LIG2        0.0000
     55 C           0.5165    1.3184    4.2232 C.3     2  LIG2        0.0000
     56 H           0.9701    1.3762    5.0787 H       2  LIG2        0.0000
     57 H          -0.2034    0.6737    4.3044 H       2  LIG2        0.0000
     58 C           5.8769    4.4444    0.4555 C.3     2  LIG2        0.0000
     59 H           6.5928    5.0867    0.3317 H       2  LIG2        0.0000
     60 H           5.3979    4.3576   -0.3829 H       2  LIG2        0.0000
     61 B           3.3145    8.9756   13.0483 B       3  LIG3        0.0000
     62 F           2.4996    7.8789   13.1152 F       3  LIG3        0.0000
     63 F           2.6066   10.1530   13.0127 F       3  LIG3        0.0000
     64 F           4.1709    8.9708   14.0803 F       3  LIG3        0.0000
     65 F           4.0130    8.8804   11.8882 F       3  LIG3        0.0000
     66 C           2.8890   -0.7628    2.3813 C.3     2  LIG2        0.0000
     67 H           3.2422   -1.6522    2.5393 H       2  LIG2        0.0000
     68 H           2.3684   -0.7833    1.5629 H       2  LIG2        0.0000
@<TRIPOS>BOND
     1    60    58    1
     2    50    49    1
     3    32    31    1
     4    41    40    1
     5    59    58    1
     6    39    37    1
     7    58    49    1
     8    58    25    1
     9    42    40    1
    10    49    24    1
    11    49    51    1
    12    24    37    1
    13    37    31    1
    14    37    38    1
    15    40    25    1
    16    40    52    1
    17    31    33    1
    18    31    23    1
    19    68    66    1
    20    54    52    1
    21    52    27    1
    22    52    53    1
    23    23    66    1
    24    66    67    1
    25    66    46    1
    26    27    28    1
    27    21    18    1
    28    45    43    1
    29    20    18    1
    30    35    34    1
    31    18    19    1
    32    18     1    1
    33    22    46    1
    34    22    55    1
    35    29    28    1
    36    28    43    1
    37    28    30    1
    38    46    47    1
    39    46    48    1
    40    43    26    1
    41    43    44    1
    42    34    26    1
    43    34    55    1
    44    34    36    1
    45     2     1    1
    46    55    57    1
    47    55    56    1
    48     5     3    1
    49     1     3    1
    50     1     6    1
    51     7     6    1
    52     3     4    1
    53     3    12    1
    54     6     8    1
    55     6    15    1
    56    13    12    1
    57    12    14    1
    58    12     9    1
    59    17    15    1
    60    15     9    1
    61    15    16    1
    62     9    11    1
    63     9    10    1
    64    65    61    1
    65    63    61    1
    66    61    62    1
    67    61    64    1
