@<TRIPOS>MOLECULE
C30 H36 N2 O7
 75 78 0 0 0
SMALL
GASTEIGER

@<TRIPOS>ATOM
      1 C          -1.5521   12.0415    5.9433 C.ar    1  LIG1        0.0454
      2 C          -2.8719   12.3916    5.7689 C.ar    1  LIG1       -0.0398
      3 H          -3.2168   12.5583    4.9214 H       1  LIG1        0.0636
      4 C          -3.6727   12.4873    6.9029 C.ar    1  LIG1       -0.0600
      5 H          -4.5692   12.7164    6.8121 H       1  LIG1        0.0618
      6 C          -3.1563   12.2481    8.1590 C.ar    1  LIG1       -0.0614
      7 H          -3.7118   12.3164    8.9026 H       1  LIG1        0.0618
      8 C          -1.8249   11.9077    8.3335 C.ar    1  LIG1       -0.0558
      9 H          -1.4808   11.7611    9.1851 H       1  LIG1        0.0621
     10 C          -1.0126   11.7905    7.2094 C.ar    1  LIG1       -0.0119
     11 C           0.4768   11.4423    7.0972 C.3     1  LIG1        0.0603
     12 C           1.3644   12.2702    8.0378 C.3     1  LIG1       -0.0067
     13 H           2.2623   11.9054    8.0743 H       1  LIG1        0.0301
     14 H           0.9958   12.2848    8.9348 H       1  LIG1        0.0301
     15 C           1.3744   13.6806    7.4294 C.3     1  LIG1        0.1290
     16 H           0.6472   14.2244    7.7988 H       1  LIG1        0.0618
     17 C           0.7675   12.0349    5.6959 C.3     1  LIG1        0.1203
     18 H           1.4818   11.5480    5.2332 H       1  LIG1        0.0730
     19 C           0.7375    9.9477    7.2245 C.ar    1  LIG1       -0.0333
     20 C           0.9996    9.1254    6.1341 C.ar    1  LIG1       -0.0569
     21 H           0.9402    9.4792    5.2766 H       1  LIG1        0.0621
     22 C           1.3451    7.7970    6.2925 C.ar    1  LIG1       -0.0510
     23 H           1.5181    7.2758    5.5419 H       1  LIG1        0.0625
     24 C           1.4388    7.2271    7.5587 C.ar    1  LIG1        0.0171
     25 C           1.1241    8.0322    8.6534 C.ar    1  LIG1       -0.0510
     26 H           1.1486    7.6689    9.5089 H       1  LIG1        0.0625
     27 C           0.7785    9.3525    8.4929 C.ar    1  LIG1       -0.0569
     28 H           0.5672    9.8628    9.2416 H       1  LIG1        0.0621
     29 C           1.9154    5.8202    7.7827 C.2     1  LIG1        0.1601
     30 C           2.3138    4.9875    6.6093 C.3     1  LIG1       -0.0014
     31 H           2.4717    4.0853    6.8959 H       1  LIG1        0.0309
     32 H           3.1158    5.3444    6.2209 H       1  LIG1        0.0309
     33 H           1.6104    4.9967    5.9556 H       1  LIG1        0.0309
     34 C           2.7172   14.3486    7.6581 C.2     1  LIG1        0.3278
     35 C           3.8935   15.8093    9.0781 C.3     1  LIG1        0.0817
     36 H           4.1605   16.4100    8.3789 H       1  LIG1        0.0661
     37 H           4.5761   15.1467    9.2093 H       1  LIG1        0.0661
     38 H           3.7669   16.3028    9.8923 H       1  LIG1        0.0661
     39 C           1.1106   14.5008    5.1757 C.2     1  LIG1        0.4055
     40 C           0.5655   15.1141    2.8764 C.3     1  LIG1        0.1068
     41 C           1.4822   16.3165    2.8037 C.3     1  LIG1       -0.0253
     42 H           2.3858   16.0223    2.6685 H       1  LIG1        0.0268
     43 H           1.4275   16.8100    3.6250 H       1  LIG1        0.0268
     44 H           1.2155   16.8787    2.0733 H       1  LIG1        0.0268
     45 C           0.6498   14.2931    1.5991 C.3     1  LIG1       -0.0253
     46 H           0.0651   13.5343    1.6687 H       1  LIG1        0.0268
     47 H           1.5514   13.9921    1.4710 H       1  LIG1        0.0268
     48 H           0.3828   14.8347    0.8525 H       1  LIG1        0.0268
     49 C          -0.8604   15.4931    3.2053 C.3     1  LIG1       -0.0253
     50 H          -0.8797   15.9811    4.0326 H       1  LIG1        0.0268
     51 H          -1.3925   14.6986    3.2900 H       1  LIG1        0.0268
     52 H          -1.2164   16.0430    2.5031 H       1  LIG1        0.0268
     53 C          -0.5418   11.3759    3.7208 C.2     1  LIG1        0.4092
     54 C          -2.1345   10.4049    2.1379 C.3     1  LIG1        0.1068
     55 C          -1.6969    8.9816    2.4274 C.3     1  LIG1       -0.0253
     56 H          -2.0864    8.6888    3.2557 H       1  LIG1        0.0268
     57 H          -0.7396    8.9486    2.4950 H       1  LIG1        0.0268
     58 H          -1.9877    8.4057    1.7161 H       1  LIG1        0.0268
     59 C          -3.6344   10.5171    2.0743 C.3     1  LIG1       -0.0253
     60 H          -3.8819   11.4353    1.9482 H       1  LIG1        0.0268
     61 H          -4.0151   10.1927    2.8945 H       1  LIG1        0.0268
     62 H          -3.9637    9.9933    1.3398 H       1  LIG1        0.0268
     63 C          -1.4920   10.9707    0.8838 C.3     1  LIG1       -0.0253
     64 H          -0.5378   10.8841    0.9464 H       1  LIG1        0.0268
     65 H          -1.7245   11.8972    0.7940 H       1  LIG1        0.0268
     66 H          -1.8058   10.4868    0.1160 H       1  LIG1        0.0268
     67 N          -0.5021   11.9549    4.9761 N.am    1  LIG1       -0.2165
     68 N           1.1586   13.4212    6.0059 N.am    1  LIG1       -0.2336
     69 O           2.0051    5.3890    8.9212 O.2     1  LIG1       -0.2924
     70 O           3.7096   14.1397    7.0246 O.2     1  LIG1       -0.2487
     71 O           2.6567   15.1603    8.7098 O.3     1  LIG1       -0.4666
     72 O           1.1822   15.6313    5.6006 O.2     1  LIG1       -0.2262
     73 O           1.0319   14.1302    3.8889 O.3     1  LIG1       -0.4445
     74 O           0.4457   11.0398    3.1195 O.2     1  LIG1       -0.2258
     75 O          -1.8061   11.2543    3.3088 O.3     1  LIG1       -0.4443
@<TRIPOS>BOND
     1    66    63    1
     2    65    63    1
     3    48    45    1
     4    63    64    1
     5    63    54    1
     6    62    59    1
     7    47    45    1
     8    45    46    1
     9    45    40    1
    10    58    55    1
    11    60    59    1
    12    44    41    1
    13    59    54    1
    14    59    61    1
    15    54    55    1
    16    54    75    1
    17    55    57    1
    18    55    56    1
    19    52    49    1
    20    42    41    1
    21    41    40    1
    22    41    43    1
    23    40    49    1
    24    40    73    1
    25    74    53    2
    26    49    51    1
    27    49    50    1
    28    75    53    1
    29    53    67   am
    30    73    39    1
    31     3     2    1
    32    67    17    1
    33    67     1    1
    34    39    72    2
    35    39    68   am
    36    18    17    1
    37    21    20    1
    38    23    22    1
    39    17    68    1
    40    17    11    1
    41     2     1   ar
    42     2     4   ar
    43     1    10   ar
    44    33    30    1
    45    68    15    1
    46    20    22   ar
    47    20    19   ar
    48    32    30    1
    49    22    24   ar
    50    30    31    1
    51    30    29    1
    52     5     4    1
    53     4     6   ar
    54    70    34    2
    55    11    10    1
    56    11    19    1
    57    11    12    1
    58    10     8   ar
    59    19    27   ar
    60    15    34    1
    61    15    16    1
    62    15    12    1
    63    24    29    1
    64    24    25   ar
    65    34    71    1
    66    29    69    2
    67    12    13    1
    68    12    14    1
    69     6     8   ar
    70     6     7    1
    71     8     9    1
    72    36    35    1
    73    27    25   ar
    74    27    28    1
    75    25    26    1
    76    71    35    1
    77    35    37    1
    78    35    38    1
