@<TRIPOS>MOLECULE
4129431.cif
 51 54 0 0 0
SMALL
GASTEIGER

@<TRIPOS>ATOM
      1 C           8.2780    6.5387   18.4064 C.3     1  LIG1        0.1648
      2 C           9.4022    4.4116   18.1849 C.3     1  LIG1        0.0626
      3 H           9.9563    4.5453   18.9942 H       1  LIG1        0.0570
      4 H           9.9223    3.8678   17.5423 H       1  LIG1        0.0570
      5 C           8.1128    3.6687   18.5620 C.3     1  LIG1        0.0418
      6 C           8.4344    2.3952   19.3827 C.3     1  LIG1       -0.0178
      7 H           9.0138    2.7034   20.1379 H       1  LIG1        0.0319
      8 C           9.2626    1.3625   18.6283 C.3     1  LIG1       -0.0445
      9 H           8.6911    0.8943   17.9706 H       1  LIG1        0.0272
     10 H           9.9924    1.8157   18.1377 H       1  LIG1        0.0272
     11 C           9.8506    0.3543   19.6047 C.3     1  LIG1       -0.0271
     12 H          10.1608   -0.4364   19.0960 H       1  LIG1        0.0313
     13 H          10.6415    0.7588   20.0413 H       1  LIG1        0.0313
     14 C           8.8835   -0.1043   20.6750 C.ar    1  LIG1       -0.0436
     15 C           9.2175   -1.2234   21.4412 C.ar    1  LIG1       -0.0583
     16 H          10.0286   -1.6839   21.2607 H       1  LIG1        0.0620
     17 C           8.3983   -1.6767   22.4543 C.ar    1  LIG1       -0.0615
     18 H           8.6426   -2.4418   22.9606 H       1  LIG1        0.0618
     19 C           7.2186   -1.0102   22.7264 C.ar    1  LIG1       -0.0615
     20 H           6.6528   -1.3073   23.4280 H       1  LIG1        0.0618
     21 C           6.8668    0.0919   21.9702 C.ar    1  LIG1       -0.0578
     22 H           6.0496    0.5392   22.1564 H       1  LIG1        0.0621
     23 C           7.6828    0.5675   20.9335 C.ar    1  LIG1       -0.0380
     24 C           7.1961    1.7275   20.0559 C.3     1  LIG1       -0.0029
     25 C           6.4652    2.7964   20.8975 C.3     1  LIG1       -0.0410
     26 H           5.6315    2.4053   21.2607 H       1  LIG1        0.0275
     27 H           7.0380    3.0492   21.6655 H       1  LIG1        0.0275
     28 C           6.1172    4.0574   20.1005 C.3     1  LIG1       -0.0248
     29 H           5.4826    3.8332   19.3754 H       1  LIG1        0.0291
     30 H           5.6892    4.7238   20.6941 H       1  LIG1        0.0291
     31 C           7.3858    4.6281   19.5164 C.3     1  LIG1        0.0733
     32 H           8.0054    4.8275   20.2763 H       1  LIG1        0.0606
     33 C           7.7737    7.6173   17.4836 C.3     1  LIG1       -0.0108
     34 H           7.2074    8.2393   17.9862 H       1  LIG1        0.0281
     35 H           7.2517    7.2113   16.7615 H       1  LIG1        0.0281
     36 H           8.5352    8.1038   17.1036 H       1  LIG1        0.0281
     37 C           9.0814    7.1055   19.5712 C.3     1  LIG1       -0.0108
     38 H           9.7988    7.6777   19.2266 H       1  LIG1        0.0281
     39 H           9.4718    6.3694   20.0883 H       1  LIG1        0.0281
     40 H           8.4926    7.6337   20.1483 H       1  LIG1        0.0281
     41 C           7.2930    3.4134   17.3034 C.2     1  LIG1       -0.0801
     42 H           6.3566    3.5604   17.3621 H       1  LIG1        0.0573
     43 C           7.7591    3.0096   16.1445 C.2     1  LIG1       -0.1019
     44 H           8.6890    2.8492   16.0356 H       1  LIG1        0.0532
     45 H           7.1664    2.8773   15.4142 H       1  LIG1        0.0532
     46 C           6.1856    1.0982   19.0668 C.3     1  LIG1       -0.0552
     47 H           5.7885    1.8026   18.5137 H       1  LIG1        0.0238
     48 H           5.4799    0.6401   19.5686 H       1  LIG1        0.0238
     49 H           6.6496    0.4532   18.4928 H       1  LIG1        0.0238
     50 O           9.0921    5.6805   17.6005 O.3     1  LIG1       -0.3482
     51 O           7.1015    5.8611   18.8547 O.3     1  LIG1       -0.3450
@<TRIPOS>BOND
     1    45    43    1
     2    44    43    1
     3    43    41    2
     4    35    33    1
     5    36    33    1
     6    41    42    1
     7    41     5    1
     8    33    34    1
     9    33     1    1
    10     4     2    1
    11    50     2    1
    12    50     1    1
    13     9     8    1
    14    10     8    1
    15     2     5    1
    16     2     3    1
    17     1    51    1
    18     1    37    1
    19    49    46    1
    20    47    46    1
    21     5     6    1
    22     5    31    1
    23     8     6    1
    24     8    11    1
    25    51    31    1
    26    46    48    1
    27    46    24    1
    28    12    11    1
    29    38    37    1
    30    29    28    1
    31     6    24    1
    32     6     7    1
    33    31    28    1
    34    31    32    1
    35    37    39    1
    36    37    40    1
    37    11    13    1
    38    11    14    1
    39    24    25    1
    40    24    23    1
    41    28    30    1
    42    28    25    1
    43    14    23   ar
    44    14    15   ar
    45    25    26    1
    46    25    27    1
    47    23    21   ar
    48    16    15    1
    49    15    17   ar
    50    21    22    1
    51    21    19   ar
    52    17    19   ar
    53    17    18    1
    54    19    20    1
