@<TRIPOS>MOLECULE
C19 H19 N O S
 41 43 0 0 0
SMALL
GASTEIGER

@<TRIPOS>ATOM
      1 C           3.6458    0.5644    3.9027 C.ar    1  LIG1        0.0237
      2 C           5.0085    0.7303    4.1074 C.ar    1  LIG1       -0.0473
      3 H           5.4821    1.4347    3.6815 H       1  LIG1        0.0629
      4 C           5.6625   -0.1577    4.9498 C.ar    1  LIG1       -0.0607
      5 H           6.5967   -0.0617    5.0953 H       1  LIG1        0.0618
      6 C           4.9703   -1.1903    5.5879 C.ar    1  LIG1       -0.0610
      7 H           5.4358   -1.7878    6.1619 H       1  LIG1        0.0618
      8 C           3.6112   -1.3460    5.3881 C.ar    1  LIG1       -0.0498
      9 H           3.1353   -2.0390    5.8297 H       1  LIG1        0.0625
     10 C           2.9490   -0.4665    4.5262 C.ar    1  LIG1        0.0365
     11 C           1.5210   -0.4901    4.1700 C.2     1  LIG1        0.2008
     12 C           1.2189    0.6253    3.2185 C.2     1  LIG1        0.0606
     13 C           0.0129    0.6967    2.6176 C.2     1  LIG1       -0.0351
     14 H          -0.6225    0.0605    2.9241 H       1  LIG1        0.0636
     15 C          -0.4709    1.5905    1.5766 C.ar    1  LIG1        0.0001
     16 C          -0.0160    2.9320    1.4326 C.ar    1  LIG1        0.0370
     17 C          -0.2335    3.5972    0.2178 C.ar    1  LIG1       -0.0372
     18 H           0.1511    4.4547    0.0805 H       1  LIG1        0.0639
     19 C          -0.9993    3.0268   -0.7860 C.ar    1  LIG1       -0.0484
     20 C          -1.5981    1.7861   -0.5572 C.ar    1  LIG1       -0.0552
     21 H          -2.1897    1.4295   -1.2103 H       1  LIG1        0.0623
     22 C          -1.3506    1.0606    0.6004 C.ar    1  LIG1       -0.0413
     23 C           0.0342    3.4750    3.8354 C.3     1  LIG1        0.0004
     24 H          -0.3212    4.3503    4.0965 H       1  LIG1        0.0428
     25 H           0.7245    3.1988    4.4735 H       1  LIG1        0.0428
     26 H          -0.6905    2.8156    3.8332 H       1  LIG1        0.0428
     27 C           1.2671    4.8433    2.2619 C.3     1  LIG1        0.0004
     28 H           1.8216    4.7826    1.4563 H       1  LIG1        0.0428
     29 H           1.8303    5.0696    3.0310 H       1  LIG1        0.0428
     30 H           0.5873    5.5386    2.1390 H       1  LIG1        0.0428
     31 C          -1.2170    3.7623   -2.0845 C.3     1  LIG1       -0.0396
     32 H          -1.4437    4.6971   -1.8965 H       1  LIG1        0.0278
     33 H          -1.9501    3.3409   -2.5792 H       1  LIG1        0.0278
     34 H          -0.3980    3.7263   -2.6218 H       1  LIG1        0.0278
     35 C          -1.9711   -0.3046    0.7589 C.3     1  LIG1       -0.0391
     36 H          -2.5932   -0.4690    0.0195 H       1  LIG1        0.0278
     37 H          -2.4561   -0.3466    1.6092 H       1  LIG1        0.0278
     38 H          -1.2672   -0.9863    0.7506 H       1  LIG1        0.0278
     39 N           0.6152    3.5652    2.4986 N.pl3   1  LIG1       -0.3355
     40 O           0.6955   -1.2994    4.5654 O.2     1  LIG1       -0.2861
     41 S           2.6389    1.6163    2.9069 S.3     1  LIG1       -0.0849
@<TRIPOS>BOND
     1    34    31    1
     2    33    31    1
     3    31    32    1
     4    31    19    1
     5    21    20    1
     6    19    20   ar
     7    19    17   ar
     8    20    22   ar
     9    36    35    1
    10    18    17    1
    11    17    16   ar
    12    22    35    1
    13    22    15   ar
    14    38    35    1
    15    35    37    1
    16    16    15   ar
    17    16    39    1
    18    28    27    1
    19    15    13    1
    20    30    27    1
    21    27    39    1
    22    27    29    1
    23    39    23    1
    24    13    14    1
    25    13    12    2
    26    41    12    1
    27    41     1    1
    28    12    11    1
    29     3     2    1
    30    26    23    1
    31    23    24    1
    32    23    25    1
    33     1     2   ar
    34     1    10   ar
    35     2     4   ar
    36    11    10    1
    37    11    40    2
    38    10     8   ar
    39     4     5    1
    40     4     6   ar
    41     8     6   ar
    42     8     9    1
    43     6     7    1
