@<TRIPOS>MOLECULE
C17 H12 O S
 31 34 0 0 0
SMALL
GASTEIGER

@<TRIPOS>ATOM
      1 S           4.0133    7.5964   10.6233 S.3     1  LIG1       -0.0143
      2 O           4.4378    8.3439   11.8474 O.3     1  LIG1       -0.1573
      3 C           5.1528    6.2139   10.4400 C.ar    1  LIG1        0.0339
      4 C           6.1412    6.0633   11.4023 C.ar    1  LIG1       -0.0458
      5 H           6.1982    6.6796   12.1233 H       1  LIG1        0.0629
      6 C           7.0467    5.0158   11.3147 C.ar    1  LIG1       -0.0529
      7 H           7.7227    4.9227   11.9748 H       1  LIG1        0.0624
      8 C           6.9760    4.0967   10.2671 C.ar    1  LIG1       -0.0166
      9 C           7.8973    2.9989   10.1508 C.ar    1  LIG1       -0.0534
     10 H           8.5732    2.8865   10.8082 H       1  LIG1        0.0624
     11 C           7.8208    2.1251    9.1237 C.ar    1  LIG1       -0.0534
     12 H           8.4462    1.4120    9.0725 H       1  LIG1        0.0624
     13 C           6.8141    2.2506    8.1080 C.ar    1  LIG1       -0.0167
     14 C           6.7176    1.3572    7.0338 C.ar    1  LIG1       -0.0540
     15 H           7.3391    0.6430    6.9612 H       1  LIG1        0.0624
     16 C           5.7273    1.5018    6.0774 C.ar    1  LIG1       -0.0606
     17 H           5.6708    0.8785    5.3624 H       1  LIG1        0.0618
     18 C           4.8185    2.5430    6.1496 C.ar    1  LIG1       -0.0540
     19 H           4.1392    2.6229    5.4909 H       1  LIG1        0.0624
     20 C           4.8954    3.4811    7.1899 C.ar    1  LIG1       -0.0167
     21 C           4.0223    4.6115    7.2643 C.ar    1  LIG1       -0.0534
     22 H           3.3762    4.7424    6.5790 H       1  LIG1        0.0624
     23 C           4.0905    5.4986    8.2825 C.ar    1  LIG1       -0.0523
     24 H           3.4933    6.2367    8.2997 H       1  LIG1        0.0624
     25 C           5.0528    5.3435    9.3388 C.ar    1  LIG1       -0.0019
     26 C           5.9693    4.2570    9.2682 C.ar    1  LIG1       -0.0014
     27 C           5.8908    3.3283    8.1908 C.ar    1  LIG1       -0.0024
     28 C           2.5735    6.6181   11.1043 C.3     1  LIG1        0.0044
     29 H           2.8107    6.0367   11.8563 H       1  LIG1        0.0358
     30 H           2.2833    6.0700   10.3459 H       1  LIG1        0.0358
     31 H           1.8461    7.2173   11.3723 H       1  LIG1        0.0358
@<TRIPOS>BOND
     1    17    16    1
     2    19    18    1
     3    16    18   ar
     4    16    14   ar
     5    18    20   ar
     6    22    21    1
     7    15    14    1
     8    14    13   ar
     9    20    21   ar
    10    20    27   ar
    11    21    23   ar
    12    13    27   ar
    13    13    11   ar
    14    27    26   ar
    15    23    24    1
    16    23    25   ar
    17    12    11    1
    18    11     9   ar
    19    26    25   ar
    20    26     8   ar
    21    25     3   ar
    22     9     8   ar
    23     9    10    1
    24     8     6   ar
    25    30    28    1
    26     3     1    1
    27     3     4   ar
    28     1    28    1
    29     1     2    1
    30    28    31    1
    31    28    29    1
    32     6     4   ar
    33     6     7    1
    34     4     5    1
