@<TRIPOS>MOLECULE
C40 H30 B2 F10 N1 O1 P1
 170 182 0 0 0
SMALL
GASTEIGER

@<TRIPOS>ATOM
      1 H          11.4460    7.0161   14.3447 H       1  LIG1        0.0000
      2 H           9.6462    8.4070   14.8857 H       1  LIG1        0.0000
      3 H           8.9281    9.9889   13.3296 H       1  LIG1        0.0000
      4 H          10.0542   10.2635   11.3279 H       1  LIG1        0.0000
      5 H          11.9090    8.9214   10.8355 H       1  LIG1        0.0000
      6 H          13.9204    4.2126   10.8153 H       1  LIG1        0.0000
      7 H          12.8391    2.5328    9.5834 H       1  LIG1        0.0000
      8 H          10.5636    2.6330    9.2775 H       1  LIG1        0.0000
      9 H           9.3320    4.3983   10.1487 H       1  LIG1        0.0000
     10 H          10.3636    6.0505   11.3603 H       1  LIG1        0.0000
     11 H          17.7998    8.6621   17.3291 H       1  LIG1        0.0000
     12 H          17.9193   10.9342   16.8672 H       1  LIG1        0.0000
     13 H          16.5078   11.8444   15.2423 H       1  LIG1        0.0000
     14 H          18.3838    6.4943   16.6666 H       1  LIG1        0.0000
     15 H          17.6976    5.1199   16.2857 H       1  LIG1        0.0000
     16 H          17.9725    6.2032   15.1551 H       1  LIG1        0.0000
     17 H          15.1133    6.9803   17.9937 H       1  LIG1        0.0000
     18 H          16.6336    7.0350   18.3624 H       1  LIG1        0.0000
     19 H          15.9398    5.6435   18.0747 H       1  LIG1        0.0000
     20 H          12.9197    4.0780   13.3398 H       1  LIG1        0.0000
     21 H          13.9571    3.0342   15.1754 H       1  LIG1        0.0000
     22 H          15.4845    4.1890   16.4275 H       1  LIG1        0.0000
     23 H           1.3681   17.8754   18.0727 H       2  LIG2        0.0000
     24 H           1.1132   19.6579   19.5335 H       2  LIG2        0.0000
     25 H           2.9526   20.5763   20.5688 H       2  LIG2        0.0000
     26 H           5.0869   19.7370   20.1393 H       2  LIG2        0.0000
     27 H           5.3534   17.9102   18.7251 H       2  LIG2        0.0000
     28 H           2.4118   13.4845   17.3008 H       2  LIG2        0.0000
     29 H           1.8592   11.8970   18.9338 H       2  LIG2        0.0000
     30 H           2.0894   12.3875   21.1463 H       2  LIG2        0.0000
     31 H           3.0173   14.4323   21.7987 H       2  LIG2        0.0000
     32 H           3.5603   16.0131   20.2042 H       2  LIG2        0.0000
     33 H           8.5791   19.3143   13.1777 H       2  LIG2        0.0000
     34 H           7.2555   20.9904   12.2862 H       2  LIG2        0.0000
     35 H           5.1049   21.3105   13.0845 H       2  LIG2        0.0000
     36 H           9.6013   17.5339   13.6761 H       2  LIG2        0.0000
     37 H           8.4750   16.4483   13.4228 H       2  LIG2        0.0000
     38 H           9.5920   16.2219   14.5433 H       2  LIG2        0.0000
     39 H           8.4021   18.8058   16.7882 H       2  LIG2        0.0000
     40 H           9.5725   18.9406   15.6921 H       2  LIG2        0.0000
     41 H           9.5258   17.6577   16.6666 H       2  LIG2        0.0000
     42 H           5.3619   14.0485   17.9045 H       2  LIG2        0.0000
     43 H           7.5317   13.5653   17.2825 H       2  LIG2        0.0000
     44 H           8.7580   15.1286   16.0811 H       2  LIG2        0.0000
     45 C           5.2385   15.8519   16.9802 C.ar    2  LIG2        0.0000
     46 C           5.8395   14.6558   17.3727 C.ar    2  LIG2        0.0000
     47 C           7.1434   14.3893   17.0279 C.ar    2  LIG2        0.0000
     48 C           7.8646   15.3131   16.2946 C.ar    2  LIG2        0.0000
     49 C           7.3094   16.5147   15.8774 C.ar    2  LIG2        0.0000
     50 C           5.9808   16.7688   16.2229 C.ar    2  LIG2        0.0000
     51 C           8.1235   17.5540   15.1371 C.3     2  LIG2        0.0000
     52 C           8.9848   18.3140   16.1682 C.3     2  LIG2        0.0000
     53 C           9.0313   16.8803   14.0983 C.3     2  LIG2        0.0000
     54 C           7.2046   18.5627   14.4653 C.ar    2  LIG2        0.0000
     55 C           7.6963   19.4257   13.4895 C.ar    2  LIG2        0.0000
     56 C           6.9180   20.4259   12.9660 C.ar    2  LIG2        0.0000
     57 C           5.6216   20.6083   13.4390 C.ar    2  LIG2        0.0000
     58 C           5.0588   19.7989   14.4369 C.ar    2  LIG2        0.0000
     59 C           5.8890   18.7606   14.8824 C.ar    2  LIG2        0.0000
     60 C           3.0212   14.9199   18.5780 C.ar    2  LIG2        0.0000
     61 C           2.5274   13.6858   18.2105 C.ar    2  LIG2        0.0000
     62 C           2.1933   12.7405   19.1830 C.ar    2  LIG2        0.0000
     63 C           2.3504   13.0327   20.5060 C.ar    2  LIG2        0.0000
     64 C           2.8731   14.2349   20.8876 C.ar    2  LIG2        0.0000
     65 C           3.2104   15.1777   19.9373 C.ar    2  LIG2        0.0000
     66 C           3.3739   17.7096   18.2607 C.ar    2  LIG2        0.0000
     67 C           2.1204   18.2407   18.5010 C.ar    2  LIG2        0.0000
     68 C           1.9680   19.3132   19.3647 C.ar    2  LIG2        0.0000
     69 C           3.0612   19.8607   19.9754 C.ar    2  LIG2        0.0000
     70 C           4.3199   19.3628   19.7278 C.ar    2  LIG2        0.0000
     71 C           4.4893   18.2754   18.8746 C.ar    2  LIG2        0.0000
     72 C           2.7108   21.0070   13.9978 C.ar    2  LIG2        0.0000
     73 C           1.7748   20.3993   13.1971 C.ar    2  LIG2        0.0000
     74 C           0.9619   21.0800   12.2915 C.ar    2  LIG2        0.0000
     75 C           1.0773   22.4362   12.1804 C.ar    2  LIG2        0.0000
     76 C           2.0074   23.1012   12.9333 C.ar    2  LIG2        0.0000
     77 C           2.7979   22.3889   13.8157 C.ar    2  LIG2        0.0000
     78 C           3.7268   21.0659   16.4512 C.ar    2  LIG2        0.0000
     79 C           2.5689   21.5621   17.0376 C.ar    2  LIG2        0.0000
     80 C           2.5690   22.4230   18.1171 C.ar    2  LIG2        0.0000
     81 C           3.7566   22.8091   18.6907 C.ar    2  LIG2        0.0000
     82 C           4.9262   22.3241   18.1756 C.ar    2  LIG2        0.0000
     83 C           4.8948   21.4686   17.0809 C.ar    2  LIG2        0.0000
     84 C           2.5094   16.1713   13.1763 C.3     2  LIG2        0.0000
     85 C          13.7696    5.8986   13.6056 C.ar    1  LIG1        0.0000
     86 C          13.5153    4.5557   13.8884 C.ar    1  LIG1        0.0000
     87 C          14.1407    3.9349   14.9586 C.ar    1  LIG1        0.0000
     88 C          15.0459    4.6337   15.7180 C.ar    1  LIG1        0.0000
     89 C          15.3062    5.9941   15.4935 C.ar    1  LIG1        0.0000
     90 C          14.6259    6.6207   14.4569 C.ar    1  LIG1        0.0000
     91 C          16.3348    6.7165   16.3398 C.3     1  LIG1        0.0000
     92 C          15.9698    6.5811   17.8229 C.3     1  LIG1        0.0000
     93 C          17.7201    6.0748   16.0863 C.3     1  LIG1        0.0000
     94 C          16.3882    8.1881   15.9621 C.ar    1  LIG1        0.0000
     95 C          17.2515    9.0276   16.6660 C.ar    1  LIG1        0.0000
     96 C          17.3113   10.3833   16.3935 C.ar    1  LIG1        0.0000
     97 C          16.4759   10.9120   15.4155 C.ar    1  LIG1        0.0000
     98 C          15.5905   10.1332   14.6664 C.ar    1  LIG1        0.0000
     99 C          15.6011    8.7610   14.9671 C.ar    1  LIG1        0.0000
    100 C          12.2513    5.3082   11.2002 C.ar    1  LIG1        0.0000
    101 C          12.9856    4.2423   10.6706 C.ar    1  LIG1        0.0000
    102 C          12.3413    3.2446    9.9525 C.ar    1  LIG1        0.0000
    103 C          10.9828    3.3057    9.7554 C.ar    1  LIG1        0.0000
    104 C          10.2483    4.3519   10.2684 C.ar    1  LIG1        0.0000
    105 C          10.8773    5.3559   10.9934 C.ar    1  LIG1        0.0000
    106 C          11.8434    7.8264   12.5393 C.ar    1  LIG1        0.0000
    107 C          11.1678    7.6746   13.7482 C.ar    1  LIG1        0.0000
    108 C          10.0842    8.4927   14.0408 C.ar    1  LIG1        0.0000
    109 C           9.6682    9.4449   13.1331 C.ar    1  LIG1        0.0000
    110 C          10.3392    9.6061   11.9444 C.ar    1  LIG1        0.0000
    111 C          11.4372    8.7993   11.6376 C.ar    1  LIG1        0.0000
    112 C          13.1643   11.3097   14.0122 C.ar    1  LIG1        0.0000
    113 C          12.3547   11.9851   13.1102 C.ar    1  LIG1        0.0000
    114 C          11.1066   12.4841   13.3890 C.ar    1  LIG1        0.0000
    115 C          10.5679   12.2659   14.6261 C.ar    1  LIG1        0.0000
    116 C          11.2902   11.5648   15.5510 C.ar    1  LIG1        0.0000
    117 C          12.5635   11.1072   15.2394 C.ar    1  LIG1        0.0000
    118 C          15.5163   12.1308   12.9386 C.ar    1  LIG1        0.0000
    119 C          16.5345   11.9293   12.0256 C.ar    1  LIG1        0.0000
    120 C          17.3209   12.9134   11.4853 C.ar    1  LIG1        0.0000
    121 C          17.1055   14.2283   11.8421 C.ar    1  LIG1        0.0000
    122 C          16.1192   14.5043   12.7607 C.ar    1  LIG1        0.0000
    123 C          15.3781   13.4689   13.2926 C.ar    1  LIG1        0.0000
    124 C          16.7504    7.4032   11.8429 C.3     1  LIG1        0.0000
    125 P           3.4987   16.1635   17.3492 P.3     2  LIG2        1.0000
    126 O           5.3273   17.9236   15.8726 O.3     2  LIG2        0.0000
    127 B           3.6148   20.1640   15.0818 B       2  LIG2        0.0000
    128 F           6.1084   21.0266   16.6721 F       2  LIG2        0.0000
    129 F           6.1077   22.6452   18.7389 F       2  LIG2        0.0000
    130 F           3.7641   23.6123   19.7712 F       2  LIG2        0.0000
    131 F           1.3528   21.2094   16.5434 F       2  LIG2        0.0000
    132 F           1.3913   22.8326   18.6489 F       2  LIG2        0.0000
    133 F           1.6044   19.0524   13.2494 F       2  LIG2        0.0000
    134 F           0.0702   20.4025   11.5457 F       2  LIG2        0.0000
    135 F           0.3015   23.1220   11.3098 F       2  LIG2        0.0000
    136 F           3.7154   23.1194   14.4918 F       2  LIG2        0.0000
    137 F           2.1531   24.4376   12.8081 F       2  LIG2        0.0000
    138 B           2.3918   15.9797   15.7423 B       2  LIG2        0.0000
    139 N           3.1079   16.5945   14.4784 N.4     2  LIG2        1.0000
    140 P          13.1235    6.6341   12.0840 P.3     1  LIG1        1.0000
    141 O          14.7413    7.9659   14.1836 O.3     1  LIG1        0.0000
    142 B          14.6607   10.8439   13.5339 B       1  LIG1        0.0000
    143 F          13.2141   10.4537   16.2239 F       1  LIG1        0.0000
    144 F          10.7522   11.3108   16.7616 F       1  LIG1        0.0000
    145 F           9.3271   12.7107   14.9183 F       1  LIG1        0.0000
    146 F          12.8045   12.1903   11.8425 F       1  LIG1        0.0000
    147 F          10.3854   13.1370   12.4485 F       1  LIG1        0.0000
    148 F          14.4759   13.8302   14.2418 F       1  LIG1        0.0000
    149 F          15.8881   15.7768   13.1293 F       1  LIG1        0.0000
    150 F          17.8524   15.2070   11.3078 F       1  LIG1        0.0000
    151 F          16.8198   10.6646   11.6162 F       1  LIG1        0.0000
    152 F          18.2956   12.6190   10.6029 F       1  LIG1        0.0000
    153 B          14.4228    7.2126   10.7352 B       1  LIG1        0.0000
    154 N          15.5883    8.1282   11.2620 N.4     1  LIG1        1.0000
    155 H           3.0298   16.5604   12.4665 H       2  LIG2        0.0000
    156 H           1.5985   16.4621   13.1209 H       2  LIG2        0.0000
    157 H           2.5480   15.2149   13.1169 H       2  LIG2        0.0000
    158 H          17.4005    8.0508   12.1950 H       1  LIG1        0.0000
    159 H          16.4530    6.8292   12.5577 H       1  LIG1        0.0000
    160 H          17.1604    6.8658   11.1455 H       1  LIG1        0.0000
    161 H           3.0196   19.1713   15.3942 H       2  LIG2        0.0000
    162 H          14.5000   10.1368   12.6246 H       1  LIG1        0.0000
    163 H          14.8284    6.2610   10.3574 H       1  LIG1        0.0000
    164 H          13.8187    7.7255    9.9744 H       1  LIG1        0.0000
    165 H           1.4181   16.4753   15.9717 H       2  LIG2        0.0000
    166 H           3.9591   16.3376   14.4805 H       2  LIG2        0.0000
    167 H           2.2896   14.8762   15.6475 H       2  LIG2        0.0000
    168 H          15.8756    8.6356   10.5944 H       1  LIG1        0.0000
    169 H          15.2776    8.7125   11.8364 H       1  LIG1        0.0000
    170 H           3.0920   17.4893   14.5250 H       2  LIG2        0.0000
@<TRIPOS>BOND
     1     8   103    1
     2     7   102    1
     3   103   102   ar
     4   103   104   ar
     5   102   101   ar
     6   164   153    1
     7     9   104    1
     8   104   105   ar
     9   163   153    1
    10   168   154    1
    11   152   120    1
    12   101     6    1
    13   101   100   ar
    14   153   154    1
    15   153   140    1
    16     5   111    1
    17   105   100   ar
    18   105    10    1
    19   160   124    1
    20   100   140    1
    21   154   169    1
    22   154   124    1
    23   150   121    1
    24   135    75    1
    25     4   110    1
    26   120   121   ar
    27   120   119   ar
    28   134    74    1
    29   151   119    1
    30   111   110   ar
    31   111   106   ar
    32   121   122   ar
    33   146   113    1
    34   124   158    1
    35   124   159    1
    36   110   109   ar
    37   119   118   ar
    38   140   106    1
    39   140    85    1
    40    75    74   ar
    41    75    76   ar
    42    34    56    1
    43    74    73   ar
    44   147   114    1
    45   155    84    1
    46   106   107   ar
    47   162   142    1
    48   122   149    1
    49   122   123   ar
    50   137    76    1
    51    76    77   ar
    52   118   123   ar
    53   118   142    1
    54    56    57   ar
    55    56    55   ar
    56    35    57    1
    57   113   114   ar
    58   113   112   ar
    59   157    84    1
    60   156    84    1
    61   109     3    1
    62   109   108   ar
    63    84   139    1
    64    33    55    1
    65    73   133    1
    66    73    72   ar
    67   123   148    1
    68    20    86    1
    69   114   115   ar
    70    37    53    1
    71    57    58   ar
    72    55    54   ar
    73   142   112    1
    74   142    98    1
    75    85    86   ar
    76    85    90   ar
    77    36    53    1
    78   107   108   ar
    79   107     1    1
    80    77    72   ar
    81    77   136    1
    82    86    87   ar
    83    72   127    1
    84   112   117   ar
    85   108     2    1
    86    53    38    1
    87    53    51    1
    88   141    90    1
    89   141    99    1
    90    58    59   ar
    91    58   127    1
    92    90    89   ar
    93    54    59   ar
    94    54    51    1
    95   139   166    1
    96   139   170    1
    97   139   138    1
    98   115   145    1
    99   115   116   ar
   100    98    99   ar
   101    98    97   ar
   102    59   126    1
   103    87    21    1
   104    87    88   ar
   105    99    94   ar
   106   127   161    1
   107   127    78    1
   108    51    49    1
   109    51    52    1
   110    16    93    1
   111   117   116   ar
   112   117   143    1
   113    13    97    1
   114    97    96   ar
   115    89    88   ar
   116    89    91    1
   117   116   144    1
   118   167   138    1
   119    40    52    1
   120    88    22    1
   121   138   165    1
   122   138   125    1
   123   126    50    1
   124    49    50   ar
   125    49    48   ar
   126    94    91    1
   127    94    95   ar
   128    44    48    1
   129    93    15    1
   130    93    91    1
   131    93    14    1
   132    52    41    1
   133    52    39    1
   134    50    45   ar
   135    48    47   ar
   136    91    92    1
   137    96    95   ar
   138    96    12    1
   139    78    79   ar
   140    78    83   ar
   141   131    79    1
   142    95    11    1
   143   128    83    1
   144    45   125    1
   145    45    46   ar
   146    47    43    1
   147    47    46   ar
   148    79    80   ar
   149    83    82   ar
   150    28    61    1
   151   125    66    1
   152   125    60    1
   153    46    42    1
   154    92    17    1
   155    92    19    1
   156    92    18    1
   157    23    67    1
   158    80   132    1
   159    80    81   ar
   160    82    81   ar
   161    82   129    1
   162    61    60   ar
   163    61    62   ar
   164    66    67   ar
   165    66    71   ar
   166    67    68   ar
   167    60    65   ar
   168    81   130    1
   169    27    71    1
   170    71    70   ar
   171    29    62    1
   172    62    63   ar
   173    68    24    1
   174    68    69   ar
   175    70    69   ar
   176    70    26    1
   177    65    32    1
   178    65    64   ar
   179    69    25    1
   180    63    64   ar
   181    63    30    1
   182    64    31    1
