@<TRIPOS>MOLECULE
4130853.cif
 50 50 0 0 0
SMALL
GASTEIGER

@<TRIPOS>ATOM
      1 C           1.1863    2.0253   12.8119 C.ar    1  LIG1        0.1669
      2 C          -0.8289    2.8906   12.9601 C.ar    1  LIG1        0.0368
      3 H          -1.6483    3.1189   13.3843 H       1  LIG1        0.0835
      4 C          -0.5810    3.2167   11.6813 C.ar    1  LIG1       -0.0030
      5 H          -1.1777    3.6945   11.1178 H       1  LIG1        0.0709
      6 C           3.3754    1.0887   12.4322 C.2     1  LIG1        0.4065
      7 C           5.5597   -0.0132   12.5005 C.3     1  LIG1        0.1068
      8 C           6.2412    1.0281   11.6370 C.3     1  LIG1       -0.0253
      9 H           5.7128    1.1768   10.8247 H       1  LIG1        0.0268
     10 H           7.1358    0.7142   11.3913 H       1  LIG1        0.0268
     11 H           6.3164    1.8687   12.1350 H       1  LIG1        0.0268
     12 C           6.4362   -0.3801   13.6865 C.3     1  LIG1       -0.0253
     13 H           6.6651    0.4310   14.1870 H       1  LIG1        0.0268
     14 H           7.2572   -0.8090   13.3666 H       1  LIG1        0.0268
     15 H           5.9522   -0.9995   14.2716 H       1  LIG1        0.0268
     16 C           5.1499   -1.2441   11.7236 C.3     1  LIG1       -0.0253
     17 H           4.7481   -1.8972   12.3337 H       1  LIG1        0.0268
     18 H           5.9393   -1.6384   11.2968 H       1  LIG1        0.0268
     19 H           4.4973   -0.9944   11.0372 H       1  LIG1        0.0268
     20 N           0.1686    2.2065   13.6251 N.ar    1  LIG1       -0.2329
     21 N           2.3417    1.4250   13.2635 N.am    1  LIG1       -0.2298
     22 H           2.4178    1.2512   14.1220 H       1  LIG1        0.1601
     23 O           3.3649    1.2728   11.2408 O.2     1  LIG1       -0.2260
     24 O           4.3599    0.5528   13.1629 O.3     1  LIG1       -0.4444
     25 S           0.9744    2.6441   11.2091 S.2     1  LIG1       -0.0604
     26 C           2.0890    4.5001    6.9276 C.ar    2  LIG2        0.1669
     27 C           3.8333    5.7486    8.0323 C.ar    2  LIG2       -0.0030
     28 H           4.4222    6.2438    8.5897 H       2  LIG2        0.0709
     29 C           4.0847    5.4083    6.7561 C.ar    2  LIG2        0.0368
     30 H           4.8940    5.6508    6.3213 H       2  LIG2        0.0835
     31 C          -0.0791    3.5174    7.3239 C.2     2  LIG2        0.4065
     32 C          -2.2549    2.3810    7.2544 C.3     2  LIG2        0.1068
     33 C          -1.8788    1.2492    8.1990 C.3     2  LIG2       -0.0253
     34 H          -1.3457    0.5838    7.7162 H       2  LIG2        0.0268
     35 H          -2.6938    0.8263    8.5425 H       2  LIG2        0.0268
     36 H          -1.3565    1.6078    8.9458 H       2  LIG2        0.0268
     37 C          -2.9970    3.5030    7.9412 C.3     2  LIG2       -0.0253
     38 H          -2.4993    3.7852    8.7373 H       2  LIG2        0.0268
     39 H          -3.8873    3.1902    8.2061 H       2  LIG2        0.0268
     40 H          -3.0867    4.2600    7.3266 H       2  LIG2        0.0268
     41 C          -3.0366    1.8625    6.0620 C.3     2  LIG2       -0.0253
     42 H          -3.2101    2.5992    5.4399 H       2  LIG2        0.0268
     43 H          -3.8874    1.4845    6.3685 H       2  LIG2        0.0268
     44 H          -2.5151    1.1677    5.6071 H       2  LIG2        0.0268
     45 N           3.1003    4.6880    6.1139 N.ar    2  LIG2       -0.2329
     46 N           0.9556    3.8400    6.4956 N.am    2  LIG2       -0.2298
     47 H           0.8985    3.6171    5.6465 H       2  LIG2        0.1601
     48 O          -0.1086    3.7714    8.5104 O.2     2  LIG2       -0.2260
     49 O          -1.0232    2.8943    6.6044 O.3     2  LIG2       -0.4444
     50 S           2.2851    5.1563    8.5136 S.2     2  LIG2       -0.0604
@<TRIPOS>BOND
     1    42    41    1
     2    44    41    1
     3    47    46    1
     4    41    43    1
     5    41    32    1
     6    45    29   ar
     7    45    26   ar
     8    30    29    1
     9    46    26    1
    10    46    31   am
    11    49    32    1
    12    49    31    1
    13    29    27   ar
    14    26    50   ar
    15    32    37    1
    16    32    33    1
    17    31    48    2
    18    40    37    1
    19    34    33    1
    20    37    39    1
    21    37    38    1
    22    27    50   ar
    23    27    28    1
    24    33    35    1
    25    33    36    1
    26     9     8    1
    27    19    16    1
    28     5     4    1
    29    25     4   ar
    30    25     1   ar
    31    23     6    2
    32    18    16    1
    33    10     8    1
    34     8    11    1
    35     8     7    1
    36     4     2   ar
    37    16    17    1
    38    16     7    1
    39     6    24    1
    40     6    21   am
    41     7    24    1
    42     7    12    1
    43     1    21    1
    44     1    20   ar
    45     2     3    1
    46     2    20   ar
    47    21    22    1
    48    14    12    1
    49    12    13    1
    50    12    15    1
