@<TRIPOS>MOLECULE
4130498.cif
 63 65 0 0 0
SMALL
GASTEIGER

@<TRIPOS>ATOM
      1 P           3.1295   -0.4344    6.5863 P.3     1  LIG1       -0.0268
      2 C           1.8839    0.2468    7.7738 C.ar    1  LIG1       -0.0102
      3 C           1.6068   -0.4152    9.0036 C.ar    1  LIG1       -0.0335
      4 C           0.7363    0.1990    9.8920 C.ar    1  LIG1       -0.0538
      5 H           0.5645   -0.2306   10.7231 H       1  LIG1        0.0624
      6 C           0.1014    1.4067    9.6334 C.ar    1  LIG1       -0.0414
      7 C           0.3411    1.9921    8.3998 C.ar    1  LIG1       -0.0538
      8 H          -0.1007    2.8072    8.1942 H       1  LIG1        0.0624
      9 C           1.1993    1.4437    7.4441 C.ar    1  LIG1       -0.0335
     10 C           2.2011   -1.7967    9.4147 C.3     1  LIG1       -0.0121
     11 C           1.9301   -2.8486    8.3310 C.3     1  LIG1       -0.0560
     12 H           2.4169   -2.6081    7.5146 H       1  LIG1        0.0238
     13 H           0.9702   -2.8819    8.1415 H       1  LIG1        0.0238
     14 H           2.2321   -3.7258    8.6455 H       1  LIG1        0.0238
     15 C           3.7066   -1.6949    9.7073 C.3     1  LIG1       -0.0560
     16 H           4.0376   -2.5631   10.0206 H       1  LIG1        0.0238
     17 H           3.8614   -1.0186   10.3999 H       1  LIG1        0.0238
     18 H           4.1830   -1.4401    8.8896 H       1  LIG1        0.0238
     19 C           1.5445   -2.3344   10.6986 C.3     1  LIG1       -0.0560
     20 H           0.5719   -2.3704   10.5773 H       1  LIG1        0.0238
     21 H           1.7603   -1.7400   11.4483 H       1  LIG1        0.0238
     22 H           1.8848   -3.2341   10.8881 H       1  LIG1        0.0238
     23 C          -0.9175    1.9885   10.6337 C.3     1  LIG1       -0.0127
     24 C          -0.2644    2.2047   12.0033 C.3     1  LIG1       -0.0560
     25 H           0.3875    2.9351   11.9436 H       1  LIG1        0.0238
     26 H           0.1903    1.3833   12.2808 H       1  LIG1        0.0238
     27 H          -0.9549    2.4343   12.6618 H       1  LIG1        0.0238
     28 C          -2.0693    0.9753   10.7958 C.3     1  LIG1       -0.0560
     29 H          -2.7280    1.3275   11.4308 H       1  LIG1        0.0238
     30 H          -1.7127    0.1270   11.1322 H       1  LIG1        0.0238
     31 H          -2.4987    0.8286    9.9275 H       1  LIG1        0.0238
     32 C          -1.4944    3.3106   10.1760 C.3     1  LIG1       -0.0560
     33 H          -2.1372    3.6348   10.8425 H       1  LIG1        0.0238
     34 H          -1.9484    3.1881    9.3164 H       1  LIG1        0.0238
     35 H          -0.7717    3.9644   10.0733 H       1  LIG1        0.0238
     36 C           1.2767    2.1903    6.0729 C.3     1  LIG1       -0.0121
     37 C           1.0349    1.2176    4.9062 C.3     1  LIG1       -0.0560
     38 H           0.9668    1.7219    4.0690 H       1  LIG1        0.0238
     39 H           0.2010    0.7241    5.0595 H       1  LIG1        0.0238
     40 H           1.7818    0.5863    4.8470 H       1  LIG1        0.0238
     41 C           2.6093    2.9288    5.8727 C.3     1  LIG1       -0.0560
     42 H           2.5571    3.4853    5.0683 H       1  LIG1        0.0238
     43 H           3.3336    2.2749    5.7725 H       1  LIG1        0.0238
     44 H           2.7890    3.4961    6.6505 H       1  LIG1        0.0238
     45 C           0.1887    3.2719    5.9535 C.3     1  LIG1       -0.0560
     46 H           0.3379    3.9617    6.6330 H       1  LIG1        0.0238
     47 H          -0.6912    2.8657    6.0886 H       1  LIG1        0.0238
     48 H           0.2275    3.6780    5.0630 H       1  LIG1        0.0238
     49 C           4.5667    0.3891    6.9115 C.3     1  LIG1        0.0641
     50 C           4.9901    1.3500    7.9503 C.2     1  LIG1       -0.0399
     51 C           6.3314    1.7274    7.7056 C.3     1  LIG1        0.0474
     52 C           6.7888    1.0492    6.4904 C.ar    1  LIG1       -0.0303
     53 C           5.7431    0.2378    6.0155 C.ar    1  LIG1       -0.0267
     54 C           5.9035   -0.4710    4.8377 C.ar    1  LIG1       -0.0570
     55 H           5.2032   -1.0213    4.5080 H       1  LIG1        0.0621
     56 C           7.0998   -0.3683    4.1472 C.ar    1  LIG1       -0.0614
     57 H           7.2178   -0.8565    3.3420 H       1  LIG1        0.0618
     58 C           8.1282    0.4368    4.6127 C.ar    1  LIG1       -0.0615
     59 H           8.9383    0.5034    4.1182 H       1  LIG1        0.0618
     60 C           7.9812    1.1501    5.8021 C.ar    1  LIG1       -0.0574
     61 H           8.6860    1.6940    6.1325 H       1  LIG1        0.0621
     62 C           4.3135    1.8868    9.0429 C.2     1  LIG1       -0.0603
     63 H           3.4110    1.6499    9.2251 H       1  LIG1        0.0618
@<TRIPOS>BOND
     1    57    56    1
     2    38    37    1
     3    59    58    1
     4    56    58   ar
     5    56    54   ar
     6    55    54    1
     7    58    60   ar
     8    54    53   ar
     9    40    37    1
    10    37    39    1
    11    37    36    1
    12    48    45    1
    13    42    41    1
    14    43    41    1
    15    60    61    1
    16    60    52   ar
    17    41    36    1
    18    41    44    1
    19    45    36    1
    20    45    47    1
    21    45    46    1
    22    53    52   ar
    23    53    49    1
    24    36     9    1
    25    52    51    1
    26     1    49    1
    27     1     2    1
    28    49    50    1
    29     9     2   ar
    30     9     7   ar
    31    12    11    1
    32    51    50    1
    33     2     3   ar
    34    50    62    2
    35    13    11    1
    36     8     7    1
    37    11    14    1
    38    11    10    1
    39     7     6   ar
    40    18    15    1
    41     3    10    1
    42     3     4   ar
    43    62    63    1
    44    34    32    1
    45    10    15    1
    46    10    19    1
    47     6     4   ar
    48     6    23    1
    49    15    16    1
    50    15    17    1
    51     4     5    1
    52    31    28    1
    53    35    32    1
    54    32    23    1
    55    32    33    1
    56    20    19    1
    57    23    28    1
    58    23    24    1
    59    19    22    1
    60    19    21    1
    61    28    30    1
    62    28    29    1
    63    25    24    1
    64    24    26    1
    65    24    27    1
