@<TRIPOS>MOLECULE
(3aR,7aS)-3a-Benzyl-6,6-dimethylhexahydrobenzofuran-2,4-dione
 40 42 0 0 0
SMALL
GASTEIGER

@<TRIPOS>ATOM
      1 O          -1.4396    1.8879    6.1098 O.3     1  LIG1       -0.4603
      2 O          -0.7483    2.3791    4.0436 O.2     1  LIG1       -0.2508
      3 O           0.7556    4.9334    8.6062 O.2     1  LIG1       -0.2966
      4 C          -0.6897    2.6006    5.2237 C.2     1  LIG1        0.3084
      5 C           0.1921    3.5897    5.9711 C.3     1  LIG1        0.0610
      6 H          -0.2276    4.4855    6.0221 H       1  LIG1        0.0388
      7 H           1.0858    3.6691    5.5531 H       1  LIG1        0.0388
      8 C           0.2717    2.9271    7.3473 C.3     1  LIG1        0.0797
      9 C           0.4578    3.7612    8.6074 C.2     1  LIG1        0.1443
     10 C           0.1831    2.9735    9.8725 C.3     1  LIG1        0.0118
     11 H           0.2405    3.5879   10.6461 H       1  LIG1        0.0347
     12 H           0.8916    2.2907    9.9797 H       1  LIG1        0.0347
     13 C          -1.2028    2.2601    9.9061 C.3     1  LIG1       -0.0248
     14 C          -1.4801    1.5096    8.5785 C.3     1  LIG1       -0.0092
     15 H          -0.9038    0.7072    8.5162 H       1  LIG1        0.0306
     16 H          -2.4257    1.2179    8.5456 H       1  LIG1        0.0306
     17 C          -1.1899    2.4420    7.4336 C.3     1  LIG1        0.1166
     18 H          -1.7726    3.2474    7.5412 H       1  LIG1        0.0744
     19 C          -1.1924    1.2393   11.0455 C.3     1  LIG1       -0.0593
     20 H          -0.5198    0.5510   10.8609 H       1  LIG1        0.0235
     21 H          -2.0754    0.8207   11.1172 H       1  LIG1        0.0235
     22 H          -0.9757    1.6914   11.8871 H       1  LIG1        0.0235
     23 C          -2.2886    3.3121   10.1708 C.3     1  LIG1       -0.0593
     24 H          -2.1116    3.7551   11.0267 H       1  LIG1        0.0235
     25 H          -3.1650    2.8752   10.2033 H       1  LIG1        0.0235
     26 H          -2.2807    3.9772    9.4508 H       1  LIG1        0.0235
     27 C           1.2939    1.7653    7.3215 C.3     1  LIG1       -0.0114
     28 H           1.0863    1.1526    8.0712 H       1  LIG1        0.0324
     29 H           1.1664    1.2582    6.4812 H       1  LIG1        0.0324
     30 C           2.7605    2.1607    7.4213 C.ar    1  LIG1       -0.0463
     31 C           3.2642    3.4165    7.0949 C.ar    1  LIG1       -0.0585
     32 H           2.6701    4.1011    6.8106 H       1  LIG1        0.0620
     33 C           4.6286    3.6819    7.1800 C.ar    1  LIG1       -0.0615
     34 H           4.9566    4.5435    6.9523 H       1  LIG1        0.0618
     35 C           5.5096    2.6970    7.5953 C.ar    1  LIG1       -0.0617
     36 H           6.4414    2.8758    7.6426 H       1  LIG1        0.0618
     37 C           5.0200    1.4529    7.9399 C.ar    1  LIG1       -0.0615
     38 H           5.6171    0.7756    8.2359 H       1  LIG1        0.0618
     39 C           3.6589    1.1862    7.8567 C.ar    1  LIG1       -0.0585
     40 H           3.3352    0.3265    8.0996 H       1  LIG1        0.0620
@<TRIPOS>BOND
     1     2     4    2
     2     4     5    1
     3     4     1    1
     4     7     5    1
     5     5     6    1
     6     5     8    1
     7     1    17    1
     8    29    27    1
     9    32    31    1
    10    34    33    1
    11    31    33   ar
    12    31    30   ar
    13    33    35   ar
    14    27     8    1
    15    27    30    1
    16    27    28    1
    17     8    17    1
    18     8     9    1
    19    30    39   ar
    20    17    18    1
    21    17    14    1
    22    35    36    1
    23    35    37   ar
    24    39    37   ar
    25    39    40    1
    26    37    38    1
    27    15    14    1
    28    16    14    1
    29    14    13    1
    30     3     9    2
    31     9    10    1
    32    26    23    1
    33    10    13    1
    34    10    12    1
    35    10    11    1
    36    13    23    1
    37    13    19    1
    38    23    25    1
    39    23    24    1
    40    20    19    1
    41    19    21    1
    42    19    22    1
