@<TRIPOS>MOLECULE
4130490.cif
 74 79 0 0 0
SMALL
GASTEIGER

@<TRIPOS>ATOM
      1 P           8.3675    0.6622    4.6926 P.3     1  LIG1        1.0000
      2 O           7.3235    4.4628    2.4753 O.2     1  LIG1        0.0000
      3 C           9.6338    1.6416    5.5158 C.3     1  LIG1        0.0000
      4 H           9.2752    2.5076    5.8045 H       1  LIG1        0.0000
      5 H           9.9928    1.1689    6.2944 H       1  LIG1        0.0000
      6 C          10.6984    1.8242    4.4512 C.2     1  LIG1        0.0000
      7 C           7.8429    1.7272    3.2954 C.3     1  LIG1        0.0000
      8 H           7.7752    1.1728    2.4781 H       1  LIG1        0.0000
      9 C           6.4724    2.3620    3.5818 C.3     1  LIG1        0.0000
     10 H           6.4711    2.7762    4.4704 H       1  LIG1        0.0000
     11 H           5.7714    1.6778    3.5577 H       1  LIG1        0.0000
     12 C          12.0553    1.2396    4.7782 C.3     1  LIG1        0.0000
     13 H          12.6743    1.4343    4.0558 H       1  LIG1        0.0000
     14 H          11.9766    0.2795    4.8850 H       1  LIG1        0.0000
     15 H          12.3866    1.6306    5.6020 H       1  LIG1        0.0000
     16 C           9.5327    5.1923    2.6354 C.3     1  LIG1        0.0000
     17 H          10.3731    4.9551    3.0569 H       1  LIG1        0.0000
     18 H           9.1559    5.9675    3.0788 H       1  LIG1        0.0000
     19 H           9.6868    5.3988    1.6995 H       1  LIG1        0.0000
     20 C           8.5774    4.0407    2.7420 C.2     1  LIG1        0.0000
     21 C           8.9236    2.7912    3.0849 C.2     1  LIG1        0.0000
     22 C          10.3464    2.3930    3.2922 C.2     1  LIG1        0.0000
     23 C          11.2829    2.5419    2.1168 C.3     1  LIG1        0.0000
     24 H          11.0909    3.3866    1.6571 H       1  LIG1        0.0000
     25 H          12.2067    2.5792    2.4439 H       1  LIG1        0.0000
     26 C          11.1491    1.4024    1.1371 C.3     1  LIG1        0.0000
     27 H          11.3910    0.5706    1.5736 H       1  LIG1        0.0000
     28 H          11.7384    1.5544    0.3818 H       1  LIG1        0.0000
     29 H          10.2319    1.3492    0.8265 H       1  LIG1        0.0000
     30 C           6.9898    0.2430    5.7578 C.ar    1  LIG1        0.0000
     31 C           6.1421   -0.8010    5.4022 C.ar    1  LIG1        0.0000
     32 H           6.3411   -1.3330    4.6551 H       1  LIG1        0.0000
     33 C           5.0081   -1.0563    6.1466 C.ar    1  LIG1        0.0000
     34 H           4.4273   -1.7494    5.8907 H       1  LIG1        0.0000
     35 C           4.7236   -0.2995    7.2618 C.ar    1  LIG1        0.0000
     36 H           3.9455   -0.4707    7.7599 H       1  LIG1        0.0000
     37 C           5.5764    0.7054    7.6463 C.ar    1  LIG1        0.0000
     38 H           5.3984    1.1969    8.4262 H       1  LIG1        0.0000
     39 C           6.6975    0.9971    6.8923 C.ar    1  LIG1        0.0000
     40 H           7.2622    1.7043    7.1455 H       1  LIG1        0.0000
     41 C           9.1305   -0.8856    4.2159 C.ar    1  LIG1        0.0000
     42 C           9.5739   -1.7275    5.2421 C.ar    1  LIG1        0.0000
     43 H           9.4256   -1.4917    6.1397 H       1  LIG1        0.0000
     44 C          10.2270   -2.9000    4.9383 C.ar    1  LIG1        0.0000
     45 H          10.5252   -3.4608    5.6321 H       1  LIG1        0.0000
     46 C          10.4468   -3.2569    3.6439 C.ar    1  LIG1        0.0000
     47 H          10.8915   -4.0604    3.4441 H       1  LIG1        0.0000
     48 C          10.0166   -2.4361    2.6272 C.ar    1  LIG1        0.0000
     49 H          10.1736   -2.6805    1.7323 H       1  LIG1        0.0000
     50 C           9.3571   -1.2566    2.9091 C.ar    1  LIG1        0.0000
     51 H           9.0623   -0.7049    2.2071 H       1  LIG1        0.0000
     52 C           6.0715    2.7449    0.9581 C.ar    1  LIG1        0.0000
     53 F           8.1127    3.5213   -0.0001 F       1  LIG1        0.0000
     54 C           6.9702    2.8141   -0.0958 C.ar    1  LIG1        0.0000
     55 F           7.6855    2.2702   -2.2925 F       1  LIG1        0.0000
     56 C           6.7740    2.1846   -1.3040 C.ar    1  LIG1        0.0000
     57 F           5.4230    0.8452   -2.6958 F       1  LIG1        0.0000
     58 C           5.6387    1.4628   -1.5175 C.ar    1  LIG1        0.0000
     59 F           3.5611    0.6756   -0.7252 F       1  LIG1        0.0000
     60 C           4.7102    1.3691   -0.5309 C.ar    1  LIG1        0.0000
     61 F           4.0058    1.8266    1.6417 F       1  LIG1        0.0000
     62 C           4.9534    1.9878    0.6828 C.ar    1  LIG1        0.0000
     63 C           4.8612    4.4261    2.6707 C.ar    1  LIG1        0.0000
     64 F           5.2153    5.4564    0.5618 F       1  LIG1        0.0000
     65 C           4.5051    5.3622    1.7008 C.ar    1  LIG1        0.0000
     66 F           3.2030    7.1470    0.8553 F       1  LIG1        0.0000
     67 C           3.4631    6.2571    1.8336 C.ar    1  LIG1        0.0000
     68 F           1.7446    7.1732    3.1691 F       1  LIG1        0.0000
     69 C           2.7259    6.2684    2.9871 C.ar    1  LIG1        0.0000
     70 F           2.3041    5.3640    5.1147 F       1  LIG1        0.0000
     71 C           3.0203    5.3674    3.9778 C.ar    1  LIG1        0.0000
     72 F           4.2658    3.6096    4.8238 F       1  LIG1        0.0000
     73 C           4.0639    4.4690    3.7889 C.ar    1  LIG1        0.0000
     74 B           6.1976    3.4835    2.4411 B       1  LIG1        0.0000
@<TRIPOS>BOND
     1    57    58    1
     2    55    56    1
     3    58    56   ar
     4    58    60   ar
     5    56    54   ar
     6    59    60    1
     7    60    62   ar
     8    54    53    1
     9    54    52   ar
    10    28    26    1
    11    64    65    1
    12    62    52   ar
    13    62    61    1
    14    29    26    1
    15    66    67    1
    16    52    74    1
    17    26    27    1
    18    26    23    1
    19    24    23    1
    20    19    16    1
    21    65    67   ar
    22    65    63   ar
    23    49    48    1
    24    67    69   ar
    25    23    25    1
    26    23    22    1
    27    51    50    1
    28    74     2    1
    29    74    63    1
    30    74     9    1
    31     2    20    1
    32     8     7    1
    33    48    50   ar
    34    48    46   ar
    35    16    20    1
    36    16    17    1
    37    16    18    1
    38    63    73   ar
    39    20    21    2
    40    50    41   ar
    41    69    68    1
    42    69    71   ar
    43    21    22    1
    44    21     7    1
    45    22     6    2
    46     7     9    1
    47     7     1    1
    48    47    46    1
    49    11     9    1
    50     9    10    1
    51    46    44   ar
    52    73    71   ar
    53    73    72    1
    54    71    70    1
    55    13    12    1
    56    41     1    1
    57    41    42   ar
    58     6    12    1
    59     6     3    1
    60    32    31    1
    61     1     3    1
    62     1    30    1
    63    12    14    1
    64    12    15    1
    65    44    42   ar
    66    44    45    1
    67    42    43    1
    68    31    30   ar
    69    31    33   ar
    70     3     4    1
    71     3     5    1
    72    30    39   ar
    73    34    33    1
    74    33    35   ar
    75    39    40    1
    76    39    37   ar
    77    35    37   ar
    78    35    36    1
    79    37    38    1
