@<TRIPOS>MOLECULE
C37 H32 N4 O3
 304 324 0 0 0
SMALL
GASTEIGER

@<TRIPOS>ATOM
      1 O           6.5594   13.6157    3.2612 O.2     1  LIG1       -0.2724
      2 O           8.8916   11.0919   11.3561 O.2     1  LIG1       -0.2677
      3 O           6.9219    7.1504   10.1532 O.2     1  LIG1       -0.2677
      4 N           6.3192   15.8085    3.9612 N.am    1  LIG1       -0.1601
      5 N           6.3700   16.5301    5.1838 N.2     1  LIG1       -0.1808
      6 N           7.1624    9.7440    9.2831 N.2     1  LIG1       -0.1778
      7 N           7.6657    9.2866   10.5008 N.am    1  LIG1       -0.1192
      8 C           6.5794   14.4777    4.1264 C.2     1  LIG1        0.2519
      9 C           6.8937   14.2816    5.6103 C.3     1  LIG1        0.0987
     10 C           6.6895   15.6928    6.1107 C.2     1  LIG1        0.0503
     11 C           6.7283   16.1521    7.5403 C.3     1  LIG1       -0.0237
     12 H           6.6485   17.1078    7.5699 H       1  LIG1        0.0290
     13 H           7.5609   15.8869    7.9372 H       1  LIG1        0.0290
     14 H           6.0006   15.7544    8.0235 H       1  LIG1        0.0290
     15 C           5.9168   13.2317    6.2191 C.3     1  LIG1        0.0010
     16 H           5.9446   12.4558    5.6201 H       1  LIG1        0.0360
     17 C           6.3621   12.7459    7.5354 C.2     1  LIG1       -0.0778
     18 H           6.5218   13.3742    8.2010 H       1  LIG1        0.0576
     19 C           6.5508   11.4716    7.8288 C.2     1  LIG1       -0.0457
     20 H           6.3612   10.8397    7.1731 H       1  LIG1        0.0630
     21 C           7.0347   10.9951    9.1155 C.2     1  LIG1        0.0461
     22 H           7.2454   11.5908    9.7958 H       1  LIG1        0.0845
     23 C           8.5110    9.9492   11.4301 C.2     1  LIG1        0.2737
     24 C           8.8687    8.9302   12.4358 C.ar    1  LIG1        0.0512
     25 C           9.6344    9.0526   13.5771 C.ar    1  LIG1       -0.0488
     26 H          10.0444    9.8544   13.8063 H       1  LIG1        0.0625
     27 C           9.7629    7.8951   14.3757 C.ar    1  LIG1       -0.0610
     28 H          10.2388    7.9453   15.1719 H       1  LIG1        0.0618
     29 C           9.2082    6.7090   14.0109 C.ar    1  LIG1       -0.0610
     30 H           9.3224    5.9579   14.5483 H       1  LIG1        0.0618
     31 C           8.4677    6.6115   12.8326 C.ar    1  LIG1       -0.0488
     32 H           8.1009    5.7981   12.5714 H       1  LIG1        0.0625
     33 C           8.2894    7.7296   12.0734 C.ar    1  LIG1        0.0512
     34 C           7.5301    7.9357   10.8114 C.2     1  LIG1        0.2737
     35 C           5.9464   16.5132    2.7928 C.ar    1  LIG1        0.0600
     36 C           5.5716   15.8358    1.6565 C.ar    1  LIG1       -0.0381
     37 H           5.5544   14.9065    1.6417 H       1  LIG1        0.0637
     38 C           5.2180   16.5754    0.5176 C.ar    1  LIG1       -0.0570
     39 H           5.0102   16.1169   -0.2638 H       1  LIG1        0.0621
     40 C           5.1643   17.9477    0.5102 C.ar    1  LIG1       -0.0503
     41 C           5.5655   18.5874    1.6885 C.ar    1  LIG1       -0.0570
     42 H           5.5698   19.5167    1.7206 H       1  LIG1        0.0621
     43 C           5.9558   17.8680    2.8051 C.ar    1  LIG1       -0.0381
     44 H           6.2274   18.3194    3.5717 H       1  LIG1        0.0637
     45 C           4.7047   18.7111   -0.6779 C.3     1  LIG1       -0.0397
     46 H           3.7708   18.5409   -0.8258 H       1  LIG1        0.0278
     47 H           5.2057   18.4346   -1.4494 H       1  LIG1        0.0278
     48 H           4.8389   19.6490   -0.5275 H       1  LIG1        0.0278
     49 C           4.4634   13.7266    6.2019 C.3     1  LIG1       -0.0201
     50 H           4.4001   14.5299    6.7417 H       1  LIG1        0.0319
     51 H           4.2232   13.9628    5.2923 H       1  LIG1        0.0319
     52 C           3.4749   12.7116    6.7195 C.ar    1  LIG1       -0.0468
     53 C           2.7641   12.9134    7.8411 C.ar    1  LIG1       -0.0586
     54 H           2.8939   13.7038    8.3168 H       1  LIG1        0.0620
     55 C           1.8627   12.0107    8.3119 C.ar    1  LIG1       -0.0615
     56 H           1.3530   12.2062    9.0662 H       1  LIG1        0.0618
     57 C           1.7089   10.8035    7.6636 C.ar    1  LIG1       -0.0617
     58 H           1.1178   10.1641    7.9914 H       1  LIG1        0.0618
     59 C           2.4063   10.5695    6.5790 C.ar    1  LIG1       -0.0615
     60 H           2.3254    9.7442    6.1600 H       1  LIG1        0.0618
     61 C           3.2846   11.5435    6.0293 C.ar    1  LIG1       -0.0586
     62 H           3.7178   11.3906    5.2208 H       1  LIG1        0.0620
     63 C           8.3655   13.8092    5.7360 C.3     1  LIG1       -0.0078
     64 H           8.6062   13.8041    6.6776 H       1  LIG1        0.0327
     65 H           8.4240   12.8965    5.4155 H       1  LIG1        0.0327
     66 C           9.3879   14.6525    4.9842 C.ar    1  LIG1       -0.0460
     67 C           9.7211   14.3449    3.7270 C.ar    1  LIG1       -0.0585
     68 H           9.3640   13.5934    3.3105 H       1  LIG1        0.0620
     69 C          10.6399   15.1987    3.0295 C.ar    1  LIG1       -0.0615
     70 H          10.8399   15.0485    2.1322 H       1  LIG1        0.0618
     71 C          11.2318   16.2675    3.7295 C.ar    1  LIG1       -0.0617
     72 H          11.8397   16.8261    3.3006 H       1  LIG1        0.0618
     73 C          10.9221   16.4720    4.9866 C.ar    1  LIG1       -0.0615
     74 H          11.3319   17.1656    5.4501 H       1  LIG1        0.0618
     75 C          10.0225   15.6962    5.6152 C.ar    1  LIG1       -0.0585
     76 H           9.8225   15.8711    6.5075 H       1  LIG1        0.0620
     77 O           6.7403    0.8697   19.2785 O.2     2  LIG2       -0.2724
     78 O           3.7684    6.8129   12.8622 O.2     2  LIG2       -0.2677
     79 O           6.7810    9.3622   15.2385 O.2     2  LIG2       -0.2677
     80 N           6.8467    2.0061   21.2900 N.am    2  LIG2       -0.1601
     81 N           6.6518    3.3376   21.7361 N.2     2  LIG2       -0.1808
     82 N           5.5808    6.5985   14.9254 N.2     2  LIG2       -0.1778
     83 N           5.3372    7.8105   14.2820 N.am    2  LIG2       -0.1192
     84 C           6.6564    1.8825   19.9441 C.2     2  LIG2        0.2519
     85 C           6.2927    3.2835   19.4437 C.3     2  LIG2        0.0987
     86 C           6.3640    4.0610   20.7353 C.2     2  LIG2        0.0503
     87 C           6.0976    5.5134   20.8906 C.3     2  LIG2       -0.0237
     88 H           6.0667    5.7345   21.8249 H       2  LIG2        0.0290
     89 H           5.2561    5.7306   20.4839 H       2  LIG2        0.0290
     90 H           6.7978    6.0150   20.4667 H       2  LIG2        0.0290
     91 C           7.3359    3.7391   18.3616 C.3     2  LIG2        0.0010
     92 H           7.3122    3.0835   17.6344 H       2  LIG2        0.0360
     93 C           7.0531    5.0825   17.7724 C.2     2  LIG2       -0.0778
     94 H           7.3056    5.8339   18.2580 H       2  LIG2        0.0576
     95 C           6.4710    5.2692   16.6114 C.2     2  LIG2       -0.0457
     96 H           6.1963    4.5184   16.1332 H       2  LIG2        0.0630
     97 C           6.2307    6.5702   16.0272 C.2     2  LIG2        0.0461
     98 H           6.5345    7.3503   16.4340 H       2  LIG2        0.0845
     99 C           4.4428    7.7720   13.1753 C.2     2  LIG2        0.2737
    100 C           4.5006    9.0941   12.5788 C.ar    2  LIG2        0.0512
    101 C           3.8053    9.5824   11.4991 C.ar    2  LIG2       -0.0488
    102 H           3.1902    9.0572   11.0406 H       2  LIG2        0.0625
    103 C           4.0544   10.8695   11.1318 C.ar    2  LIG2       -0.0610
    104 H           3.6030   11.2332   10.4046 H       2  LIG2        0.0618
    105 C           4.9784   11.6494   11.8294 C.ar    2  LIG2       -0.0610
    106 H           5.1380   12.5211   11.5484 H       2  LIG2        0.0618
    107 C           5.6547   11.1615   12.9140 C.ar    2  LIG2       -0.0488
    108 H           6.2603   11.6890   13.3823 H       2  LIG2        0.0625
    109 C           5.4033    9.8569   13.2837 C.ar    2  LIG2        0.0512
    110 C           5.9681    9.0508   14.3856 C.2     2  LIG2        0.2737
    111 C           7.0562    1.0052   22.2661 C.ar    2  LIG2        0.0600
    112 C           7.6522   -0.2057   21.9210 C.ar    2  LIG2       -0.0381
    113 H           7.9364   -0.3624   21.0509 H       2  LIG2        0.0637
    114 C           7.8166   -1.1803   22.9119 C.ar    2  LIG2       -0.0570
    115 H           8.1546   -2.0124   22.6728 H       2  LIG2        0.0621
    116 C           7.4885   -0.9390   24.2381 C.ar    2  LIG2       -0.0503
    117 C           6.9358    0.2394   24.5314 C.ar    2  LIG2       -0.0570
    118 H           6.6872    0.4088   25.4114 H       2  LIG2        0.0621
    119 C           6.7099    1.2475   23.5528 C.ar    2  LIG2       -0.0381
    120 H           6.3300    2.0622   23.7944 H       2  LIG2        0.0637
    121 C           7.6908   -2.0488   25.2339 C.3     2  LIG2       -0.0397
    122 H           7.1513   -2.8034   24.9874 H       2  LIG2        0.0278
    123 H           7.4361   -1.7443   26.1090 H       2  LIG2        0.0278
    124 H           8.6159   -2.3059   25.2413 H       2  LIG2        0.0278
    125 C           8.7699    3.7376   18.9482 C.3     2  LIG2       -0.0201
    126 H           8.8274    4.3975   19.6557 H       2  LIG2        0.0319
    127 H           8.9589    2.8674   19.3328 H       2  LIG2        0.0319
    128 C           9.7986    4.0483   17.8932 C.ar    2  LIG2       -0.0468
    129 C          10.1221    3.1092   16.9344 C.ar    2  LIG2       -0.0586
    130 H           9.7445    2.2590   16.9664 H       2  LIG2        0.0620
    131 C          11.0287    3.4422   15.8991 C.ar    2  LIG2       -0.0615
    132 H          11.2059    2.8292   15.2237 H       2  LIG2        0.0618
    133 C          11.6460    4.6640   15.8892 C.ar    2  LIG2       -0.0617
    134 H          12.2476    4.8819   15.2138 H       2  LIG2        0.0618
    135 C          11.3754    5.5297   16.8505 C.ar    2  LIG2       -0.0615
    136 H          11.8263    6.3425   16.8629 H       2  LIG2        0.0618
    137 C          10.4445    5.2649   17.8390 C.ar    2  LIG2       -0.0586
    138 H          10.2512    5.9172   18.4750 H       2  LIG2        0.0620
    139 C           4.8656    3.2393   18.8398 C.3     2  LIG2       -0.0078
    140 H           4.5786    4.1470   18.6524 H       2  LIG2        0.0327
    141 H           4.8984    2.7623   17.9968 H       2  LIG2        0.0327
    142 C           3.8391    2.5803   19.7321 C.ar    2  LIG2       -0.0460
    143 C           3.3309    3.2267   20.8512 C.ar    2  LIG2       -0.0585
    144 H           3.6159    4.0881   21.0533 H       2  LIG2        0.0620
    145 C           2.3870    2.5909   21.6868 C.ar    2  LIG2       -0.0615
    146 H           2.0758    3.0257   22.4485 H       2  LIG2        0.0618
    147 C           1.9385    1.3664   21.3886 C.ar    2  LIG2       -0.0617
    148 H           1.3233    0.9469   21.9456 H       2  LIG2        0.0618
    149 C           2.3783    0.7349   20.2719 C.ar    2  LIG2       -0.0615
    150 H           2.0379   -0.1039   20.0575 H       2  LIG2        0.0618
    151 C           3.3420    1.3278   19.4338 C.ar    2  LIG2       -0.0585
    152 H           3.6432    0.8746   18.6796 H       2  LIG2        0.0620
    153 O           8.0091    8.2820   19.1701 O.2     3  LIG3       -0.2724
    154 O           5.8773   14.3847   12.5344 O.2     3  LIG3       -0.2677
    155 O           8.5685   16.6895   15.3420 O.2     3  LIG3       -0.2677
    156 N           8.1433    9.2490   21.2678 N.am    3  LIG3       -0.1601
    157 N           8.0020   10.5403   21.8298 N.2     3  LIG3       -0.1808
    158 N           7.3082   14.0253   14.8145 N.2     3  LIG3       -0.1778
    159 N           7.2483   15.2569   14.1761 N.am    3  LIG3       -0.1192
    160 C           7.9527    9.2445   19.9194 C.2     3  LIG3        0.2519
    161 C           7.6319   10.6856   19.5275 C.3     3  LIG3        0.0987
    162 C           7.7397   11.3533   20.8783 C.2     3  LIG3        0.0503
    163 C           7.5561   12.8055   21.1692 C.3     3  LIG3       -0.0237
    164 H           6.6944   13.0882   20.8561 H       3  LIG3        0.0290
    165 H           8.2406   13.3098   20.7255 H       3  LIG3        0.0290
    166 H           7.6145   12.9511   22.1157 H       3  LIG3        0.0290
    167 C           8.6530   11.1607   18.4824 C.3     3  LIG3        0.0010
    168 H           8.6458   10.5035   17.7552 H       3  LIG3        0.0360
    169 C           8.3556   12.5004   17.8686 C.2     3  LIG3       -0.0778
    170 H           8.4918   13.2567   18.3936 H       3  LIG3        0.0576
    171 C           7.9102   12.6800   16.6238 C.2     3  LIG3       -0.0457
    172 H           7.6765   11.9302   16.1234 H       3  LIG3        0.0630
    173 C           7.7721   13.9861   16.0125 C.2     3  LIG3        0.0461
    174 H           8.0097   14.7628   16.4660 H       3  LIG3        0.0845
    175 C           6.5848   15.2814   12.9436 C.2     3  LIG3        0.2737
    176 C           6.9202   16.5855   12.3101 C.ar    3  LIG3        0.0512
    177 C           6.5233   17.1262   11.1022 C.ar    3  LIG3       -0.0488
    178 H           5.9744   16.6593   10.5156 H       3  LIG3        0.0625
    179 C           6.9737   18.3702   10.8163 C.ar    3  LIG3       -0.0610
    180 H           6.7254   18.7596   10.0103 H       3  LIG3        0.0618
    181 C           7.7589   19.0610   11.6445 C.ar    3  LIG3       -0.0610
    182 H           8.0375   19.9155   11.4030 H       3  LIG3        0.0618
    183 C           8.1689   18.5300   12.8622 C.ar    3  LIG3       -0.0488
    184 H           8.7201   19.0079   13.4390 H       3  LIG3        0.0625
    185 C           7.7256   17.2690   13.1728 C.ar    3  LIG3        0.0512
    186 C           7.9528   16.4170   14.3757 C.2     3  LIG3        0.2737
    187 C           8.2617    8.1275   22.1428 C.ar    3  LIG3        0.0600
    188 C           7.6314    8.1541   23.3531 C.ar    3  LIG3       -0.0381
    189 H           7.1501    8.9056   23.6144 H       3  LIG3        0.0637
    190 C           7.7168    7.0541   24.1863 C.ar    3  LIG3       -0.0570
    191 H           7.2521    7.0477   24.9923 H       3  LIG3        0.0621
    192 C           8.4937    5.9568   23.8264 C.ar    3  LIG3       -0.0503
    193 C           9.0859    5.9563   22.6457 C.ar    3  LIG3       -0.0570
    194 H           9.5781    5.2084   22.3918 H       3  LIG3        0.0621
    195 C           9.0011    7.0265   21.7731 C.ar    3  LIG3       -0.0381
    196 H           9.4361    7.0021   20.9523 H       3  LIG3        0.0637
    197 C           8.5978    4.7579   24.7779 C.3     3  LIG3       -0.0397
    198 H           8.9179    3.9934   24.2948 H       3  LIG3        0.0278
    199 H           7.7329    4.5655   25.1476 H       3  LIG3        0.0278
    200 H           9.2094    4.9660   25.4903 H       3  LIG3        0.0278
    201 C          10.0804   11.1777   19.0616 C.3     3  LIG3       -0.0201
    202 H          10.1184   11.8159   19.7913 H       3  LIG3        0.0319
    203 H          10.2852   10.3012   19.4240 H       3  LIG3        0.0319
    204 C          11.1032   11.5349   18.0510 C.ar    3  LIG3       -0.0468
    205 C          11.4489   10.6652   17.0256 C.ar    3  LIG3       -0.0586
    206 H          11.0491    9.8259   16.9960 H       3  LIG3        0.0620
    207 C          12.3360   10.9921   16.0741 C.ar    3  LIG3       -0.0615
    208 H          12.5213   10.3873   15.3913 H       3  LIG3        0.0618
    209 C          12.9874   12.2343   16.0963 C.ar    3  LIG3       -0.0617
    210 H          13.6123   12.4511   15.4430 H       3  LIG3        0.0618
    211 C          12.7015   13.0817   17.0502 C.ar    3  LIG3       -0.0615
    212 H          13.1277   13.9088   17.0749 H       3  LIG3        0.0618
    213 C          11.7455   12.7536   18.0559 C.ar    3  LIG3       -0.0586
    214 H          11.5521   13.3718   18.7239 H       3  LIG3        0.0620
    215 C           6.1836   10.7322   18.9680 C.3     3  LIG3       -0.0078
    216 H           5.9342   11.6588   18.8299 H       3  LIG3        0.0327
    217 H           6.1712   10.2930   18.1028 H       3  LIG3        0.0327
    218 C           5.1434   10.0816   19.8553 C.ar    3  LIG3       -0.0460
    219 C           4.6316   10.7276   20.9868 C.ar    3  LIG3       -0.0585
    220 H           4.9243   11.5887   21.1864 H       3  LIG3        0.0620
    221 C           3.7059   10.1251   21.8150 C.ar    3  LIG3       -0.0615
    222 H           3.3946   10.5709   22.5693 H       3  LIG3        0.0618
    223 C           3.2554    8.8879   21.5241 C.ar    3  LIG3       -0.0617
    224 H           2.6324    8.4819   22.0837 H       3  LIG3        0.0618
    225 C           3.6998    8.2271   20.4272 C.ar    3  LIG3       -0.0615
    226 H           3.3744    7.3770   20.2350 H       3  LIG3        0.0618
    227 C           4.6607    8.8270   19.5669 C.ar    3  LIG3       -0.0585
    228 H           4.9609    8.3737   18.8127 H       3  LIG3        0.0620
    229 O           5.0394    6.3243    2.9555 O.2     4  LIG4       -0.2724
    230 O           6.1641   -0.0464    9.7145 O.2     4  LIG4       -0.2677
    231 O           8.5149    3.6502   11.0677 O.2     4  LIG4       -0.2677
    232 N           5.9271    8.3883    3.4411 N.am    4  LIG4       -0.1601
    233 N           6.7719    8.9509    4.4246 N.2     4  LIG4       -0.1808
    234 N           6.8618    2.4908    8.8394 N.2     4  LIG4       -0.1778
    235 N           7.2731    1.9636   10.0669 N.am    4  LIG4       -0.1192
    236 C           5.7414    7.0644    3.6186 C.2     4  LIG4        0.2519
    237 C           6.5732    6.6775    4.8338 C.3     4  LIG4        0.0987
    238 C           7.1380    8.0001    5.2110 C.2     4  LIG4        0.0503
    239 C           8.0518    8.2860    6.3350 C.3     4  LIG4       -0.0237
    240 H           8.5340    9.0973    6.1575 H       4  LIG4        0.0290
    241 H           8.6715    7.5596    6.4360 H       4  LIG4        0.0290
    242 H           7.5432    8.3859    7.1435 H       4  LIG4        0.0290
    243 C           5.6009    6.0646    5.8691 C.3     4  LIG4        0.0010
    244 H           5.1498    5.3127    5.4303 H       4  LIG4        0.0360
    245 C           6.2757    5.5243    7.0991 C.2     4  LIG4       -0.0778
    246 H           6.6430    6.1392    7.6932 H       4  LIG4        0.0576
    247 C           6.3859    4.2496    7.4048 C.2     4  LIG4       -0.0457
    248 H           6.1173    3.6322    6.7639 H       4  LIG4        0.0630
    249 C           6.8903    3.7316    8.6545 C.2     4  LIG4        0.0461
    250 H           7.2282    4.3027    9.3053 H       4  LIG4        0.0845
    251 C           6.8693    0.6655   10.3751 C.2     4  LIG4        0.2737
    252 C           7.4610    0.3586   11.6988 C.ar    4  LIG4        0.0512
    253 C           7.3448   -0.7560   12.5344 C.ar    4  LIG4       -0.0488
    254 H           6.8120   -1.4824   12.3076 H       4  LIG4        0.0625
    255 C           8.0507   -0.7211   13.7028 C.ar    4  LIG4       -0.0610
    256 H           8.0781   -1.4796   14.2401 H       4  LIG4        0.0618
    257 C           8.7217    0.4087   14.0996 C.ar    4  LIG4       -0.0610
    258 H           9.2104    0.3759   14.8884 H       4  LIG4        0.0618
    259 C           8.7072    1.5673   13.3996 C.ar    4  LIG4       -0.0488
    260 H           9.0415    2.3590   13.7521 H       4  LIG4        0.0625
    261 C           8.1582    1.4977   12.1178 C.ar    4  LIG4        0.0512
    262 C           8.0599    2.5374   11.0603 C.2     4  LIG4        0.2737
    263 C           5.3693    9.2621    2.4773 C.ar    4  LIG4        0.0600
    264 C           5.2549   10.6144    2.7189 C.ar    4  LIG4       -0.0381
    265 H           5.5900   10.9650    3.5126 H       4  LIG4        0.0637
    266 C           4.6569   11.4518    1.8118 C.ar    4  LIG4       -0.0570
    267 H           4.5909   12.3584    2.0090 H       4  LIG4        0.0621
    268 C           4.1518   10.9833    0.6187 C.ar    4  LIG4       -0.0503
    269 C           4.3113    9.6400    0.3796 C.ar    4  LIG4       -0.0570
    270 H           4.0185    9.2966   -0.4338 H       4  LIG4        0.0621
    271 C           4.8736    8.7866    1.2719 C.ar    4  LIG4       -0.0381
    272 H           4.9269    7.8785    1.0747 H       4  LIG4        0.0637
    273 C           3.5119   11.9162   -0.3599 C.3     4  LIG4       -0.0397
    274 H           3.0479   11.4100   -1.0279 H       4  LIG4        0.0278
    275 H           4.1881   12.4552   -0.7765 H       4  LIG4        0.0278
    276 H           2.8897   12.4844    0.1011 H       4  LIG4        0.0278
    277 C           4.5120    7.0838    6.2635 C.3     4  LIG4       -0.0201
    278 H           4.9315    7.8323    6.7146 H       4  LIG4        0.0319
    279 H           4.0918    7.4216    5.4574 H       4  LIG4        0.0319
    280 C           3.4434    6.5052    7.1657 C.ar    4  LIG4       -0.0468
    281 C           3.2765    7.0320    8.4549 C.ar    4  LIG4       -0.0586
    282 H           3.8132    7.7391    8.7309 H       4  LIG4        0.0620
    283 C           2.3294    6.5179    9.3176 C.ar    4  LIG4       -0.0615
    284 H           2.2666    6.8482   10.1853 H       4  LIG4        0.0618
    285 C           1.5009    5.5480    8.9133 C.ar    4  LIG4       -0.0617
    286 H           0.8251    5.2470    9.4778 H       4  LIG4        0.0618
    287 C           1.6449    5.0217    7.7178 C.ar    4  LIG4       -0.0615
    288 H           1.0858    4.3226    7.4664 H       4  LIG4        0.0618
    289 C           2.6125    5.4778    6.8132 C.ar    4  LIG4       -0.0586
    290 H           2.6894    5.0822    5.9751 H       4  LIG4        0.0620
    291 C           7.6672    5.6566    4.4024 C.3     4  LIG4       -0.0078
    292 H           8.2225    5.4407    5.1690 H       4  LIG4        0.0327
    293 H           7.2424    4.8385    4.1017 H       4  LIG4        0.0327
    294 C           8.5588    6.2157    3.2710 C.ar    4  LIG4       -0.0460
    295 C           8.1614    6.1107    1.9892 C.ar    4  LIG4       -0.0585
    296 H           7.3904    5.6335    1.7822 H       4  LIG4        0.0620
    297 C           8.9335    6.7392    0.9293 C.ar    4  LIG4       -0.0615
    298 H           8.6400    6.6963    0.0468 H       4  LIG4        0.0618
    299 C          10.0748    7.3808    1.2325 C.ar    4  LIG4       -0.0617
    300 H          10.5875    7.7870    0.5719 H       4  LIG4        0.0618
    301 C          10.4778    7.4230    2.6079 C.ar    4  LIG4       -0.0615
    302 H          11.2653    7.8652    2.8347 H       4  LIG4        0.0618
    303 C           9.7695    6.8562    3.5619 C.ar    4  LIG4       -0.0585
    304 H          10.0763    6.8825    4.4394 H       4  LIG4        0.0620
@<TRIPOS>BOND
     1    47    45    1
     2   274   273    1
     3    46    45    1
     4   275   273    1
     5    45    48    1
     6    45    40    1
     7   270   269    1
     8   273   276    1
     9   273   268    1
    10    39    38    1
    11   298   297    1
    12   269   268   ar
    13   269   271   ar
    14    40    38   ar
    15    40    41   ar
    16    38    36   ar
    17   300   299    1
    18   268   266   ar
    19   297   299   ar
    20   297   295   ar
    21   272   271    1
    22   299   301   ar
    23   271   263   ar
    24    37    36    1
    25    36    35   ar
    26    41    42    1
    27    41    43   ar
    28   296   295    1
    29   266   267    1
    30   266   264   ar
    31   295   294   ar
    32    70    69    1
    33   263   264   ar
    34   263   232    1
    35   301   302    1
    36   301   303   ar
    37   264   265    1
    38    35    43   ar
    39    35     4    1
    40    43    44    1
    41   229   236    2
    42    69    67   ar
    43    69    71   ar
    44     1     8    2
    45   294   303   ar
    46   294   291    1
    47    72    71    1
    48    68    67    1
    49   232   236   am
    50   232   233    1
    51   303   304    1
    52   236   237    1
    53    67    66   ar
    54    71    73   ar
    55     4     8   am
    56     4     5    1
    57   293   291    1
    58     8     9    1
    59   291   237    1
    60   291   292    1
    61   233   238    2
    62   237   238    1
    63   237   243    1
    64    66    75   ar
    65    66    63    1
    66    73    74    1
    67    73    75   ar
    68     5    10    2
    69   238   239    1
    70    62    61    1
    71    51    49    1
    72    65    63    1
    73   244   243    1
    74   279   277    1
    75     9    63    1
    76     9    10    1
    77     9    15    1
    78    75    76    1
    79    16    15    1
    80    63    64    1
    81   243   277    1
    82   243   245    1
    83   290   289    1
    84    61    59   ar
    85    61    52   ar
    86    10    11    1
    87   240   239    1
    88    60    59    1
    89    49    15    1
    90    49    52    1
    91    49    50    1
    92    15    17    1
    93   277   278    1
    94   277   280    1
    95   239   241    1
    96   239   242    1
    97    59    57   ar
    98    52    53   ar
    99   248   247    1
   100   289   280   ar
   101   289   287   ar
   102   245   247    2
   103   245   246    1
   104   280   281   ar
   105    20    19    1
   106   247   249    1
   107   288   287    1
   108    17    19    2
   109    17    18    1
   110    11    12    1
   111    11    13    1
   112    11    14    1
   113    57    58    1
   114    57    55   ar
   115   287   285   ar
   116    19    21    1
   117    53    55   ar
   118    53    54    1
   119    55    56    1
   120   281   282    1
   121   281   283   ar
   122   249   234    2
   123   249   250    1
   124   234   235    1
   125   285   283   ar
   126   285   286    1
   127    21     6    2
   128    21    22    1
   129     6     7    1
   130   283   284    1
   131   230   251    2
   132   180   179    1
   133   235   251   am
   134   235   262   am
   135     3    34    2
   136   251   252    1
   137   104   103    1
   138     7    34   am
   139     7    23   am
   140   178   177    1
   141    34    33    1
   142   179   177   ar
   143   179   181   ar
   144   102   101    1
   145   262   231    2
   146   262   261    1
   147   177   176   ar
   148   103   101   ar
   149   103   105   ar
   150     2    23    2
   151   182   181    1
   152    23    24    1
   153   101   100   ar
   154   106   105    1
   155   181   183   ar
   156   252   261   ar
   157   252   253   ar
   158   105   107   ar
   159    33    24   ar
   160    33    31   ar
   161   261   259   ar
   162   254   253    1
   163   176   175    1
   164   176   185   ar
   165    24    25   ar
   166   253   255   ar
   167   154   175    2
   168    32    31    1
   169   100    99    1
   170   100   109   ar
   171    31    29   ar
   172   183   185   ar
   173   183   184    1
   174    78    99    2
   175   107   109   ar
   176   107   108    1
   177   175   159   am
   178   185   186    1
   179    99    83   am
   180   109   110    1
   181   259   260    1
   182   259   257   ar
   183    25    26    1
   184    25    27   ar
   185   255   257   ar
   186   255   256    1
   187    29    27   ar
   188    29    30    1
   189   257   258    1
   190   159   186   am
   191   159   158    1
   192    83   110   am
   193    83    82    1
   194    27    28    1
   195   186   155    2
   196   110    79    2
   197   158   173    2
   198    82    97    2
   199   134   133    1
   200   132   131    1
   201   208   207    1
   202   210   209    1
   203   133   131   ar
   204   133   135   ar
   205   131   129   ar
   206   173   174    1
   207   173   171    1
   208    97    98    1
   209    97    95    1
   210   207   209   ar
   211   207   205   ar
   212   209   211   ar
   213   172   171    1
   214    96    95    1
   215    95    93    2
   216   171   169    2
   217   135   136    1
   218   135   137   ar
   219   129   130    1
   220   129   128   ar
   221   206   205    1
   222   205   204   ar
   223   211   212    1
   224   211   213   ar
   225    92    91    1
   226   168   167    1
   227    93    94    1
   228    93    91    1
   229   137   128   ar
   230   137   138    1
   231   169   170    1
   232   169   167    1
   233   128   125    1
   234   141   139    1
   235   204   213   ar
   236   204   201    1
   237   213   214    1
   238   217   215    1
   239    91   125    1
   240    91    85    1
   241   167   201    1
   242   167   161    1
   243   140   139    1
   244   152   151    1
   245   228   227    1
   246   216   215    1
   247   139    85    1
   248   139   142    1
   249   125   127    1
   250   125   126    1
   251   215   161    1
   252   215   218    1
   253   201   203    1
   254   201   202    1
   255   153   160    2
   256    77    84    2
   257   151   142   ar
   258   151   149   ar
   259    85    84    1
   260    85    86    1
   261   161   160    1
   262   161   162    1
   263   227   218   ar
   264   227   225   ar
   265   142   143   ar
   266   218   219   ar
   267   160   156   am
   268    84    80   am
   269   150   149    1
   270   226   225    1
   271   149   147   ar
   272   225   223   ar
   273    90    87    1
   274    89    87    1
   275   165   163    1
   276    86    87    1
   277    86    81    2
   278   143   144    1
   279   143   145   ar
   280   164   163    1
   281   162   163    1
   282   162   157    2
   283    87    88    1
   284   196   195    1
   285   219   220    1
   286   219   221   ar
   287   113   112    1
   288   163   166    1
   289   156   157    1
   290   156   187    1
   291    80    81    1
   292    80   111    1
   293   147   145   ar
   294   147   148    1
   295   223   221   ar
   296   223   224    1
   297   145   146    1
   298   195   187   ar
   299   195   193   ar
   300   221   222    1
   301   112   111   ar
   302   112   114   ar
   303   187   188   ar
   304   111   119   ar
   305   194   193    1
   306   193   192   ar
   307   115   114    1
   308   114   116   ar
   309   188   189    1
   310   188   190   ar
   311   119   120    1
   312   119   117   ar
   313   192   190   ar
   314   192   197    1
   315   190   191    1
   316   116   117   ar
   317   116   121    1
   318   198   197    1
   319   117   118    1
   320   197   199    1
   321   197   200    1
   322   122   121    1
   323   121   124    1
   324   121   123    1
