@<TRIPOS>MOLECULE
4130357.cif
 36 36 0 0 0
SMALL
GASTEIGER

@<TRIPOS>ATOM
      1 O          -1.3644    5.4470    1.3111 O.3     1  LIG1       -0.4788
      2 H          -1.5570    4.6340    1.4442 H       1  LIG1        0.2951
      3 O          -0.6810    5.3089    3.4401 O.2     1  LIG1       -0.2480
      4 C          -0.8571    5.9476    2.4354 C.2     1  LIG1        0.3362
      5 C          -0.5239    7.4285    2.2693 C.3     1  LIG1        0.1775
      6 H          -1.2796    7.8635    1.7793 H       1  LIG1        0.0737
      7 O          -0.4140    8.0423    3.5437 O.3     1  LIG1       -0.3784
      8 H           0.3739    8.0322    3.7785 H       1  LIG1        0.2106
      9 O           1.7892    6.8471    2.0828 O.3     1  LIG1       -0.3668
     10 C           0.7434    7.5852    1.4256 C.3     1  LIG1        0.0955
     11 H           0.5872    7.2009    0.5152 H       1  LIG1        0.0627
     12 C           1.2305    9.0249    1.2919 C.3     1  LIG1       -0.0212
     13 H           0.8880    9.5860    2.0317 H       1  LIG1        0.0292
     14 H           0.9452    9.4183    0.4294 H       1  LIG1        0.0292
     15 C           2.7558    8.8949    1.3602 C.3     1  LIG1       -0.0209
     16 H           3.1435    8.8147    0.4524 H       1  LIG1        0.0292
     17 H           3.1566    9.6795    1.8117 H       1  LIG1        0.0292
     18 C           2.9962    7.6175    2.1711 C.3     1  LIG1        0.0980
     19 H           3.7501    7.1024    1.7636 H       1  LIG1        0.0630
     20 C           3.2845    7.8534    3.6655 C.3     1  LIG1        0.1854
     21 O           2.1957    8.5871    4.2044 O.3     1  LIG1       -0.3756
     22 H           2.4805    9.1704    4.6938 H       1  LIG1        0.2110
     23 C           3.4221    6.5341    4.4216 C.3     1  LIG1       -0.0230
     24 H           3.6264    6.7162    5.3630 H       1  LIG1        0.0264
     25 H           4.1463    6.0048    4.0267 H       1  LIG1        0.0264
     26 H           2.5825    6.0333    4.3608 H       1  LIG1        0.0264
     27 C           4.5674    8.6650    3.8153 C.2     1  LIG1        0.3415
     28 O           4.6187    9.7448    4.3485 O.2     1  LIG1       -0.2475
     29 O           5.6078    8.0326    3.2988 O.3     1  LIG1       -0.4629
     30 C           6.9151    8.6737    3.4558 C.3     1  LIG1        0.0897
     31 H           7.0125    9.0352    4.3723 H       1  LIG1        0.0694
     32 H           7.0120    9.4193    2.8119 H       1  LIG1        0.0694
     33 C           7.9471    7.6308    3.1984 C.3     1  LIG1       -0.0306
     34 H           7.8494    6.9072    3.8518 H       1  LIG1        0.0262
     35 H           8.8395    8.0271    3.2800 H       1  LIG1        0.0262
     36 H           7.8310    7.2721    2.2935 H       1  LIG1        0.0262
@<TRIPOS>BOND
     1    14    12    1
     2    16    15    1
     3    11    10    1
     4    12    15    1
     5    12    10    1
     6    12    13    1
     7     1     2    1
     8     1     4    1
     9    15    17    1
    10    15    18    1
    11    10     9    1
    12    10     5    1
    13    19    18    1
    14     6     5    1
    15     9    18    1
    16    18    20    1
    17     5     4    1
    18     5     7    1
    19    36    33    1
    20     4     3    2
    21    32    30    1
    22    33    35    1
    23    33    30    1
    24    33    34    1
    25    29    30    1
    26    29    27    1
    27    30    31    1
    28     7     8    1
    29    20    27    1
    30    20    21    1
    31    20    23    1
    32    27    28    2
    33    25    23    1
    34    21    22    1
    35    26    23    1
    36    23    24    1
