@<TRIPOS>MOLECULE
4131872.cif
 91 95 0 0 0
SMALL
GASTEIGER

@<TRIPOS>ATOM
      1 O           1.9068    5.3821    4.6984 O.2     1  LIG1        0.0000
      2 C           2.8424    8.0990    5.7257 C.2     1  LIG1        0.0000
      3 C           2.2273    7.1628    6.4334 C.2     1  LIG1        0.0000
      4 H           1.9664    7.4685    7.2933 H       1  LIG1        0.0000
      5 C           3.3068    9.4377    6.2742 C.3     1  LIG1        0.0000
      6 H           4.1818    9.6686    5.8748 H       1  LIG1        0.0000
      7 H           2.6579   10.1401    6.0145 H       1  LIG1        0.0000
      8 C           3.4365    9.4147    7.7705 C.2     1  LIG1        0.0000
      9 H           4.0619    8.8110    8.1530 H       1  LIG1        0.0000
     10 C           2.7383   10.1775    8.5884 C.2     1  LIG1        0.0000
     11 H           2.1331   10.7888    8.1853 H       1  LIG1        0.0000
     12 C           1.9850    4.3284    1.4733 C.1     1  LIG1        0.0000
     13 C           1.7314    4.3035    2.6449 C.1     1  LIG1        0.0000
     14 C           1.4712    4.2603    4.0591 C.2     1  LIG1        0.0000
     15 C           0.8951    3.2034    4.6006 C.2     1  LIG1        0.0000
     16 H           0.7455    3.1718    5.5380 H       1  LIG1        0.0000
     17 H           0.6311    2.4732    4.0532 H       1  LIG1        0.0000
     18 N           3.1536    7.8164    4.2828 N.pl3   1  LIG1        1.0000
     19 H           2.7717    6.9760    4.1894 H       1  LIG1        0.0000
     20 C           4.6853    7.5586    3.9823 C.3     1  LIG1        0.0000
     21 C           5.3833    8.8446    3.5284 C.3     1  LIG1        0.0000
     22 H           5.5185    9.4233    4.3201 H       1  LIG1        0.0000
     23 H           6.2768    8.6079    3.1756 H       1  LIG1        0.0000
     24 C           4.6449    9.6370    2.4737 C.3     1  LIG1        0.0000
     25 H           4.5850    9.1081    1.6388 H       1  LIG1        0.0000
     26 H           5.1409   10.4707    2.2747 H       1  LIG1        0.0000
     27 C           3.2501    9.9782    2.9659 C.3     1  LIG1        0.0000
     28 H           2.7935   10.5291    2.2818 H       1  LIG1        0.0000
     29 H           3.3254   10.5205    3.7899 H       1  LIG1        0.0000
     30 C           2.4007    8.7526    3.2580 C.3     1  LIG1        0.0000
     31 C           4.7843    6.4815    2.9082 C.3     1  LIG1        0.0000
     32 H           5.7113    6.1739    2.8389 H       1  LIG1        0.0000
     33 H           4.4966    6.8505    2.0472 H       1  LIG1        0.0000
     34 H           4.2077    5.7264    3.1487 H       1  LIG1        0.0000
     35 C           5.3524    7.0258    5.2470 C.3     1  LIG1        0.0000
     36 H           6.2883    6.8073    5.0562 H       1  LIG1        0.0000
     37 H           4.8831    6.2199    5.5488 H       1  LIG1        0.0000
     38 H           5.3129    7.7090    5.9500 H       1  LIG1        0.0000
     39 C           2.1037    7.9486    1.9933 C.3     1  LIG1        0.0000
     40 H           1.4346    8.4220    1.4544 H       1  LIG1        0.0000
     41 H           1.7587    7.0651    2.2407 H       1  LIG1        0.0000
     42 H           2.9262    7.8432    1.4723 H       1  LIG1        0.0000
     43 C           1.0611    9.1560    3.8378 C.3     1  LIG1        0.0000
     44 H           1.1988    9.6188    4.6909 H       1  LIG1        0.0000
     45 H           0.5146    8.3559    3.9852 H       1  LIG1        0.0000
     46 H           0.6000    9.7539    3.2132 H       1  LIG1        0.0000
     47 C           2.7971   10.1832   10.0638 C.ar    1  LIG1        0.0000
     48 C           3.5852    9.2997   10.7841 C.ar    1  LIG1        0.0000
     49 H           4.1311    8.6721   10.3256 H       1  LIG1        0.0000
     50 C           3.5810    9.3246   12.1686 C.ar    1  LIG1        0.0000
     51 H           4.1190    8.7085   12.6522 H       1  LIG1        0.0000
     52 C           2.8023   10.2388   12.8521 C.ar    1  LIG1        0.0000
     53 H           2.8053   10.2551   13.8021 H       1  LIG1        0.0000
     54 C           2.0291   11.1165   12.1550 C.ar    1  LIG1        0.0000
     55 H           1.4980   11.7519   12.6200 H       1  LIG1        0.0000
     56 C           2.0170   11.0868   10.7653 C.ar    1  LIG1        0.0000
     57 H           1.4654   11.6963   10.2898 H       1  LIG1        0.0000
     58 B           1.8161    5.6143    6.1719 B       1  LIG1        0.0000
     59 C           2.9256    4.7385    7.0241 C.ar    1  LIG1        0.0000
     60 F           3.9398    3.6273    5.1721 F       1  LIG1        0.0000
     61 C           3.8723    3.8732    6.4972 C.ar    1  LIG1        0.0000
     62 F           5.6945    2.3726    6.6523 F       1  LIG1        0.0000
     63 C           4.8225    3.2063    7.2485 C.ar    1  LIG1        0.0000
     64 F           5.7826    2.7367    9.3448 F       1  LIG1        0.0000
     65 C           4.8716    3.3893    8.6074 C.ar    1  LIG1        0.0000
     66 F           4.0186    4.4558   10.5187 F       1  LIG1        0.0000
     67 C           3.9781    4.2498    9.1863 C.ar    1  LIG1        0.0000
     68 F           2.2011    5.7200    9.0590 F       1  LIG1        0.0000
     69 C           3.0515    4.8947    8.4056 C.ar    1  LIG1        0.0000
     70 C           0.2579    5.3585    6.7092 C.ar    1  LIG1        0.0000
     71 F          -0.5277    7.0344    5.2563 F       1  LIG1        0.0000
     72 C          -0.7834    6.1069    6.2106 C.ar    1  LIG1        0.0000
     73 F          -3.0417    6.7805    6.0395 F       1  LIG1        0.0000
     74 C          -2.1008    5.9957    6.5860 C.ar    1  LIG1        0.0000
     75 F          -3.7249    4.9330    7.9182 F       1  LIG1        0.0000
     76 C          -2.4489    5.0614    7.5181 C.ar    1  LIG1        0.0000
     77 F          -1.8008    3.3232    8.9459 F       1  LIG1        0.0000
     78 C          -1.4719    4.2603    8.0391 C.ar    1  LIG1        0.0000
     79 F           0.6953    3.5175    8.1629 F       1  LIG1        0.0000
     80 C          -0.1646    4.4108    7.6299 C.ar    1  LIG1        0.0000
     81 C           2.3017    4.3571    0.0643 C.ar    1  LIG1        0.0000
     82 C           3.5465    4.7605   -0.3738 C.ar    1  LIG1        0.0000
     83 H           4.1944    5.0499    0.2561 H       1  LIG1        0.0000
     84 C           3.8589    4.7471   -1.7126 C.ar    1  LIG1        0.0000
     85 H           4.7199    5.0250   -2.0042 H       1  LIG1        0.0000
     86 C           2.9211    4.3293   -2.6318 C.ar    1  LIG1        0.0000
     87 H           3.1394    4.3092   -3.5553 H       1  LIG1        0.0000
     88 C           1.6684    3.9403   -2.2156 C.ar    1  LIG1        0.0000
     89 H           1.0203    3.6653   -2.8532 H       1  LIG1        0.0000
     90 C           1.3529    3.9499   -0.8626 C.ar    1  LIG1        0.0000
     91 H           0.4908    3.6777   -0.5731 H       1  LIG1        0.0000
@<TRIPOS>BOND
     1    87    86    1
     2    89    88    1
     3    86    88   ar
     4    86    84   ar
     5    88    90   ar
     6    85    84    1
     7    84    82   ar
     8    90    91    1
     9    90    81   ar
    10    82    81   ar
    11    82    83    1
    12    81    12    1
    13    40    39    1
    14    42    39    1
    15    12    13    3
    16    25    24    1
    17    39    41    1
    18    39    30    1
    19    33    31    1
    20    26    24    1
    21    28    27    1
    22    24    27    1
    23    24    21    1
    24    13    14    1
    25    32    31    1
    26    31    34    1
    27    31    20    1
    28    27    30    1
    29    27    29    1
    30    23    21    1
    31    46    43    1
    32    30    43    1
    33    30    18    1
    34    21    20    1
    35    21    22    1
    36    43    45    1
    37    43    44    1
    38    20    18    1
    39    20    35    1
    40    17    15    1
    41    14    15    2
    42    14     1    1
    43    19    18    1
    44    18     2    1
    45    15    16    1
    46     1    58    1
    47    36    35    1
    48    60    61    1
    49    35    37    1
    50    35    38    1
    51    71    72    1
    52     2     5    1
    53     2     3    2
    54     6     5    1
    55     7     5    1
    56    73    74    1
    57    58     3    1
    58    58    70    1
    59    58    59    1
    60    72    74   ar
    61    72    70   ar
    62     5     8    1
    63     3     4    1
    64    61    59   ar
    65    61    63   ar
    66    74    76   ar
    67    62    63    1
    68    70    80   ar
    69    59    69   ar
    70    63    65   ar
    71    76    75    1
    72    76    78   ar
    73    80    78   ar
    74    80    79    1
    75     8     9    1
    76     8    10    2
    77    78    77    1
    78    11    10    1
    79    69    68    1
    80    69    67   ar
    81    10    47    1
    82    65    67   ar
    83    65    64    1
    84    67    66    1
    85    47    56   ar
    86    47    48   ar
    87    57    56    1
    88    49    48    1
    89    56    54   ar
    90    48    50   ar
    91    54    55    1
    92    54    52   ar
    93    50    51    1
    94    50    52   ar
    95    52    53    1
