@<TRIPOS>MOLECULE
4131338.cif
 30 31 0 0 0
SMALL
GASTEIGER

@<TRIPOS>ATOM
      1 B           7.9404    7.9404   14.6505 B       1  LIG1        0.0000
      2 B           6.7304    6.7304   14.6505 B       1  LIG1        0.0000
      3 O           9.1620    7.7756   15.2270 O.3     1  LIG1        0.0000
      4 O           5.4071    7.0131   14.6802 O.3     1  LIG1        0.0000
      5 C           9.8463    9.0409   15.1808 C.3     1  LIG1        0.0000
      6 H           9.7585    9.4824   16.0511 H       1  LIG1        0.0000
      7 C          11.3030    8.8946   14.8512 C.ar    1  LIG1        0.0000
      8 C          11.7572    7.8984   14.0264 C.ar    1  LIG1        0.0000
      9 H          11.1618    7.2660   13.6924 H       1  LIG1        0.0000
     10 C          13.0970    7.8309   13.6865 C.ar    1  LIG1        0.0000
     11 H          13.3947    7.1490   13.1298 H       1  LIG1        0.0000
     12 C          13.9748    8.7419   14.1538 C.ar    1  LIG1        0.0000
     13 H          14.8756    8.6847   13.9268 H       1  LIG1        0.0000
     14 C          13.5308    9.7483   14.9655 C.ar    1  LIG1        0.0000
     15 H          14.1288   10.3895   15.2746 H       1  LIG1        0.0000
     16 C          12.2089    9.8170   15.3244 C.ar    1  LIG1        0.0000
     17 H          11.9226   10.4938   15.8943 H       1  LIG1        0.0000
     18 C           4.6782    5.7724   14.6183 C.3     1  LIG1        0.0000
     19 H           4.1019    5.6973   15.4079 H       1  LIG1        0.0000
     20 C           3.8258    5.7037   13.3803 C.ar    1  LIG1        0.0000
     21 C           4.1299    6.4149   12.2478 C.ar    1  LIG1        0.0000
     22 H           4.8512    7.0014   12.2522 H       1  LIG1        0.0000
     23 C           3.3767    6.2660   11.1021 C.ar    1  LIG1        0.0000
     24 H           3.5968    6.7508   10.3389 H       1  LIG1        0.0000
     25 C           2.3156    5.4161   11.0772 C.ar    1  LIG1        0.0000
     26 H           1.8092    5.3207   10.3022 H       1  LIG1        0.0000
     27 C           1.9988    4.7100   12.1921 C.ar    1  LIG1        0.0000
     28 H           1.2787    4.1209   12.1775 H       1  LIG1        0.0000
     29 C           2.7367    4.8601   13.3466 C.ar    1  LIG1        0.0000
     30 H           2.4975    4.3869   14.1114 H       1  LIG1        0.0000
@<TRIPOS>BOND
     1    26    25    1
     2    24    23    1
     3    25    23   ar
     4    25    27   ar
     5    23    21   ar
     6    28    27    1
     7    27    29   ar
     8    21    22    1
     9    21    20   ar
    10    11    10    1
    11    29    20   ar
    12    29    30    1
    13    20    18    1
    14    10     8   ar
    15    10    12   ar
    16     9     8    1
    17    13    12    1
    18     8     7   ar
    19    12    14   ar
    20    18     4    1
    21    18    19    1
    22     2     1    1
    23     2     4    1
    24     1     3    1
    25     7     5    1
    26     7    16   ar
    27    14    15    1
    28    14    16   ar
    29     5     3    1
    30     5     6    1
    31    16    17    1
