@<TRIPOS>MOLECULE
C6 H7 Cl N3 O2, C6 H5 O3 S
 34 34 0 0 0
SMALL
GASTEIGER

@<TRIPOS>ATOM
      1 C          14.6449   -0.2207    0.9227 C.ar    1  LIG1        0.1196
      2 C          13.9766   -1.2712    0.3472 C.ar    1  LIG1       -0.0343
      3 H          13.5126   -1.1486   -0.4495 H       1  LIG1        0.0637
      4 C          13.9943   -2.5061    0.9519 C.ar    1  LIG1       -0.0599
      5 H          13.5253   -3.2136    0.5710 H       1  LIG1        0.0618
      6 C          14.6975   -2.7021    2.1095 C.ar    1  LIG1       -0.0616
      7 H          14.7122   -3.5410    2.5101 H       1  LIG1        0.0618
      8 C          15.3845   -1.6513    2.6803 C.ar    1  LIG1       -0.0599
      9 H          15.8716   -1.7868    3.4607 H       1  LIG1        0.0618
     10 C          15.3525   -0.4004    2.0991 C.ar    1  LIG1       -0.0343
     11 H          15.8007    0.3132    2.4924 H       1  LIG1        0.0637
     12 C          10.1939   -0.4138    6.6116 C.ar    2  LIG2        0.0570
     13 C           9.5159    0.4048    5.6851 C.ar    2  LIG2       -0.0143
     14 H           9.6353    1.3265    5.7215 H       2  LIG2        0.0653
     15 C           8.6892   -0.1234    4.7388 C.ar    2  LIG2        0.1076
     16 C           8.4877   -1.5037    4.6275 C.ar    2  LIG2        0.1625
     17 C           9.1605   -2.3286    5.4738 C.ar    2  LIG2        0.0370
     18 H           9.0554   -3.2497    5.4005 H       2  LIG2        0.0705
     19 C          10.0062   -1.8054    6.4512 C.ar    2  LIG2        0.1528
     20 N          10.9532    0.1690    7.5569 N.pl3   2  LIG2       -0.3562
     21 N           7.5463   -2.0410    3.6586 N.pl3   2  LIG2       -0.4101
     22 N          10.6300   -2.7517    7.3323 N.pl3   2  LIG2        0.0585
     23 O          16.0231    1.6343   -0.2189 O.2     1  LIG1       -0.1397
     24 O          14.1410    2.3015    1.1293 O.3     1  LIG1       -0.0427
     25 O          13.7844    1.2708   -1.0076 O.2     1  LIG1       -0.1397
     26 O          10.3955   -3.9507    7.1720 O.2     2  LIG2       -0.1261
     27 O          11.3544   -2.3610    8.2418 O.2     2  LIG2       -0.1261
     28 S          14.6466    1.3698    0.1474 S.3     1  LIG1        0.1396
     29 CL          7.8583    0.9339    3.6544 Cl      2  LIG2       -0.0769
     30 H          11.3135   -0.2840    8.1041 H       2  LIG2        0.1424
     31 H          11.0217    0.9655    7.5852 H       2  LIG2        0.1424
     32 H           7.5881   -2.8866    3.6699 H       2  LIG2        0.3713
     33 H           7.7035   -1.7323    2.7643 H       2  LIG2        0.3713
     34 H           6.7258   -1.9169    3.9435 H       2  LIG2        0.3713
@<TRIPOS>BOND
     1    25    28    2
     2     3     2    1
     3    23    28    2
     4    28     1    1
     5    28    24    1
     6     2     1   ar
     7     2     4   ar
     8     5     4    1
     9     1    10   ar
    10     4     6   ar
    11    10    11    1
    12    10     8   ar
    13     6     7    1
    14     6     8   ar
    15     8     9    1
    16    33    21    1
    17    29    15    1
    18    21    32    1
    19    21    34    1
    20    21    16    1
    21    16    15   ar
    22    16    17   ar
    23    15    13   ar
    24    18    17    1
    25    17    19   ar
    26    13    14    1
    27    13    12   ar
    28    19    12   ar
    29    19    22    1
    30    12    20    1
    31    26    22    2
    32    22    27    2
    33    20    31    1
    34    20    30    1
