@<TRIPOS>MOLECULE
4131724.cif
 60 62 0 0 0
SMALL
GASTEIGER

@<TRIPOS>ATOM
      1 O          13.2338    3.1750    4.8851 O.3     1  LIG1       -0.5066
      2 H          13.0763    3.9603    5.1580 H       1  LIG1        0.2921
      3 O           9.6555    4.8028    2.0908 O.3     1  LIG1       -0.5063
      4 H           9.8777    5.5841    2.4186 H       1  LIG1        0.2921
      5 O           9.8370   -0.5704    3.7905 O.2     1  LIG1       -0.2735
      6 O          12.1179   -2.7463    3.1913 O.3     1  LIG1       -0.4639
      7 O          10.6292   -4.3261    2.6448 O.2     1  LIG1       -0.2492
      8 O          11.3470   -2.4377   -0.2851 O.2     1  LIG1       -0.2931
      9 N          10.9604    0.1924    1.9619 N.am    1  LIG1       -0.2531
     10 C          12.0852    1.7284    3.4386 C.ar    1  LIG1        0.0018
     11 H          12.6213    1.0070    3.7467 H       1  LIG1        0.0673
     12 C          10.3092    2.5311    1.9631 C.ar    1  LIG1        0.0233
     13 C          11.4410    4.0394    3.5083 C.ar    1  LIG1        0.0217
     14 H          11.5401    4.9112    3.8726 H       1  LIG1        0.0691
     15 C          10.4881    3.8005    2.5303 C.ar    1  LIG1        0.1258
     16 C          11.1254    1.5261    2.4685 C.ar    1  LIG1        0.0483
     17 C          12.2508    3.0047    3.9564 C.ar    1  LIG1        0.1221
     18 C          10.3346   -0.7540    2.6858 C.2     1  LIG1        0.2450
     19 C          10.2955   -2.0598    1.8792 C.3     1  LIG1        0.2006
     20 C          11.3711   -0.1773    0.6070 C.3     1  LIG1        0.1200
     21 C          11.0580   -1.6860    0.5942 C.2     1  LIG1        0.1863
     22 C           8.8606   -2.4708    1.5259 C.3     1  LIG1       -0.0338
     23 H           8.8764   -3.3166    1.0316 H       1  LIG1        0.0249
     24 H           8.4495   -1.7757    0.9707 H       1  LIG1        0.0249
     25 H           8.3414   -2.5818    2.3495 H       1  LIG1        0.0249
     26 C          11.0152   -3.1897    2.6170 C.2     1  LIG1        0.3295
     27 C          12.9389   -3.7302    3.9081 C.3     1  LIG1        0.0897
     28 H          12.3488   -4.3493    4.4066 H       1  LIG1        0.0694
     29 H          13.5156   -3.2629    4.5630 H       1  LIG1        0.0694
     30 C          13.7983   -4.5187    2.9598 C.3     1  LIG1       -0.0306
     31 H          13.2284   -5.0059    2.3292 H       1  LIG1        0.0262
     32 H          14.3446   -5.1554    3.4664 H       1  LIG1        0.0262
     33 H          14.3840   -3.9077    2.4653 H       1  LIG1        0.0262
     34 C          10.5703    0.5403   -0.4551 C.2     1  LIG1       -0.0536
     35 H          10.6875    0.2091   -1.3382 H       1  LIG1        0.0597
     36 C           9.1827    2.1893   -1.6144 C.3     1  LIG1       -0.0431
     37 H           9.4857    3.1192   -1.6774 H       1  LIG1        0.0275
     38 H           8.2040    2.1659   -1.5982 H       1  LIG1        0.0275
     39 H           9.5082    1.6858   -2.3901 H       1  LIG1        0.0275
     40 C           9.7256    1.5666   -0.3444 C.2     1  LIG1       -0.0660
     41 C           6.2600    0.2185    0.3462 C.2     1  LIG1       -0.1023
     42 H           6.5033   -0.5584    0.8367 H       1  LIG1        0.0532
     43 H           5.5707    0.1717   -0.3066 H       1  LIG1        0.0532
     44 C          12.8759    0.0748    0.3615 C.3     1  LIG1       -0.0233
     45 H          13.0842   -0.1752   -0.5727 H       1  LIG1        0.0291
     46 H          13.0471    1.0456    0.4528 H       1  LIG1        0.0291
     47 C          13.8276   -0.6612    1.2731 C.3     1  LIG1       -0.0626
     48 H          13.6361   -0.4264    2.2054 H       1  LIG1        0.0231
     49 H          14.7489   -0.4089    1.0560 H       1  LIG1        0.0231
     50 H          13.7161   -1.6273    1.1494 H       1  LIG1        0.0231
     51 C           9.2357    2.2666    0.9201 C.3     1  LIG1        0.0162
     52 H           8.9248    3.1694    0.6234 H       1  LIG1        0.0401
     53 C           7.9821    1.5806    1.5630 C.3     1  LIG1       -0.0153
     54 H           8.2625    0.6928    1.9251 H       1  LIG1        0.0349
     55 C           6.8772    1.3551    0.5690 C.2     1  LIG1       -0.0874
     56 H           6.6001    2.1040    0.0548 H       1  LIG1        0.0569
     57 C           7.4347    2.4147    2.7165 C.3     1  LIG1       -0.0581
     58 H           7.1880    3.3049    2.3881 H       1  LIG1        0.0236
     59 H           8.1206    2.5012    3.4116 H       1  LIG1        0.0236
     60 H           6.6440    1.9743    3.0907 H       1  LIG1        0.0236
@<TRIPOS>BOND
     1    39    36    1
     2    37    36    1
     3    36    38    1
     4    36    40    1
     5    35    34    1
     6    45    44    1
     7    34    40    2
     8    34    20    1
     9    40    51    1
    10    43    41    1
    11     8    21    2
    12    56    55    1
    13    41    55    2
    14    41    42    1
    15    44    46    1
    16    44    20    1
    17    44    47    1
    18    55    53    1
    19    21    20    1
    20    21    19    1
    21    20     9    1
    22    52    51    1
    23    51    53    1
    24    51    12    1
    25    24    22    1
    26    23    22    1
    27    49    47    1
    28    50    47    1
    29    47    48    1
    30    22    19    1
    31    22    25    1
    32    53    54    1
    33    53    57    1
    34    19    26    1
    35    19    18    1
    36     9    16    1
    37     9    18   am
    38    12    16   ar
    39    12    15   ar
    40     3     4    1
    41     3    15    1
    42    31    30    1
    43    58    57    1
    44    33    30    1
    45    16    10   ar
    46    15    13   ar
    47    26     7    2
    48    26     6    1
    49    18     5    2
    50    57    60    1
    51    57    59    1
    52    30    32    1
    53    30    27    1
    54     6    27    1
    55    10    11    1
    56    10    17   ar
    57    13    14    1
    58    13    17   ar
    59    27    28    1
    60    27    29    1
    61    17     1    1
    62     1     2    1
