@<TRIPOS>MOLECULE
sarpong85
 112 124 0 0 0
SMALL
GASTEIGER

@<TRIPOS>ATOM
      1 C          12.7354   12.9929   10.0899 C.3     1  LIG1        0.0212
      2 H          12.1852   13.1223   10.9027 H       1  LIG1        0.0468
      3 H          13.6729   13.2109   10.3235 H       1  LIG1        0.0468
      4 C          12.6584   11.5236    9.6687 C.3     1  LIG1       -0.0215
      5 H          12.5531   10.9705   10.4963 H       1  LIG1        0.0319
      6 C          13.9265   11.0651    8.9544 C.3     1  LIG1       -0.0462
      7 H          14.7041   11.1781    9.5580 H       1  LIG1        0.0269
      8 H          13.8500   10.1049    8.7303 H       1  LIG1        0.0269
      9 C          14.1512   11.8710    7.6798 C.3     1  LIG1       -0.0257
     10 H          14.9326   11.5031    7.1965 H       1  LIG1        0.0290
     11 H          14.3545   12.8093    7.9202 H       1  LIG1        0.0290
     12 C          12.9352   11.8414    6.7604 C.3     1  LIG1        0.0662
     13 H          12.8863   10.9254    6.3607 H       1  LIG1        0.0602
     14 C          11.5964   12.1045    7.4577 C.3     1  LIG1        0.0224
     15 C          10.3452   11.8535    6.5632 C.3     1  LIG1       -0.0212
     16 H          10.1256   10.8787    6.5335 H       1  LIG1        0.0314
     17 C          10.2671   12.4705    5.1429 C.3     1  LIG1       -0.0400
     18 H          10.5495   11.8172    4.4556 H       1  LIG1        0.0275
     19 H          10.8379   13.2772    5.0740 H       1  LIG1        0.0275
     20 C           8.7621   12.8356    4.9839 C.3     1  LIG1        0.0076
     21 H           8.5825   13.4717    4.2342 H       1  LIG1        0.0371
     22 C           7.9256   11.5857    4.9214 C.2     1  LIG1       -0.0817
     23 H           7.7791   11.0802    4.1316 H       1  LIG1        0.0573
     24 C           7.4275   11.2810    6.0920 C.2     1  LIG1       -0.0811
     25 H           6.9140   10.4992    6.2595 H       1  LIG1        0.0573
     26 C           7.7537   12.3004    7.1398 C.3     1  LIG1        0.0162
     27 H           7.0994   12.5042    7.8675 H       1  LIG1        0.0378
     28 C           8.4337   13.4205    6.3823 C.3     1  LIG1        0.0889
     29 C           9.2536   12.6283    7.3195 C.3     1  LIG1        0.0178
     30 C           9.8808   13.1192    8.5900 C.3     1  LIG1       -0.0122
     31 H           9.3863   13.8474    9.0651 H       1  LIG1        0.0326
     32 C          11.2901   13.5017    8.0467 C.3     1  LIG1        0.0411
     33 H          11.2118   14.1809    7.3166 H       1  LIG1        0.0511
     34 C          11.4371   11.2739    8.7721 C.3     1  LIG1       -0.0265
     35 H          11.3327   10.2993    8.5696 H       1  LIG1        0.0311
     36 C          10.1504   11.8498    9.4148 C.3     1  LIG1       -0.0441
     37 H           9.3978   11.2097    9.3419 H       1  LIG1        0.0272
     38 H          10.2964   12.0683   10.3694 H       1  LIG1        0.0272
     39 C          12.7181   15.1955    9.1420 C.2     1  LIG1        0.4029
     40 C          12.6682   17.3754    8.2564 C.3     1  LIG1        0.0833
     41 H          12.4759   17.7655    9.1340 H       1  LIG1        0.0661
     42 H          12.2313   17.9082    7.5597 H       1  LIG1        0.0661
     43 H          13.6368   17.3718    8.1065 H       1  LIG1        0.0661
     44 C          13.9455   12.3027    4.6649 C.3     1  LIG1        0.0368
     45 H          14.8671   12.2910    4.9997 H       1  LIG1        0.0524
     46 H          13.8874   12.9022    3.8926 H       1  LIG1        0.0524
     47 H          13.6837   11.3976    4.3975 H       1  LIG1        0.0524
     48 C           6.8258   15.1226    6.2811 C.3     1  LIG1        0.0372
     49 H           6.6083   14.8474    5.3656 H       1  LIG1        0.0524
     50 H           6.7101   16.0923    6.3675 H       1  LIG1        0.0524
     51 H           6.2274   14.6648    6.9089 H       1  LIG1        0.0524
     52 C           6.8777   15.4830   10.0382 C.3     2  LIG2        0.0212
     53 H           5.9226   15.2850    9.8685 H       2  LIG2        0.0468
     54 H           7.3844   15.2492    9.2204 H       2  LIG2        0.0468
     55 C           7.0309   16.9808   10.3019 C.3     2  LIG2       -0.0215
     56 H           7.1411   17.4404    9.4202 H       2  LIG2        0.0319
     57 C           5.8110   17.5809   10.9932 C.3     2  LIG2       -0.0462
     58 H           5.0141   17.4632   10.4180 H       2  LIG2        0.0269
     59 H           5.9521   18.5522   11.1282 H       2  LIG2        0.0269
     60 C           5.5732   16.9090   12.3393 C.3     2  LIG2       -0.0257
     61 H           4.8135   17.3485   12.7970 H       2  LIG2        0.0290
     62 H           5.3343   15.9594   12.1949 H       2  LIG2        0.0290
     63 C           6.8097   16.9878   13.2269 C.3     2  LIG2        0.0662
     64 H           6.9037   17.9364   13.5302 H       2  LIG2        0.0602
     65 C           8.1124   16.5921   12.5386 C.3     2  LIG2        0.0224
     66 C           9.3908   16.9000   13.3736 C.3     2  LIG2       -0.0212
     67 H           9.6407   17.8631   13.2710 H       2  LIG2        0.0314
     68 C           9.5058   16.4814   14.8520 C.3     2  LIG2       -0.0400
     69 H           8.9383   15.6939   15.0451 H       2  LIG2        0.0275
     70 H           9.2435   17.2226   15.4529 H       2  LIG2        0.0275
     71 C          11.0163   16.1348   15.0154 C.3     2  LIG2        0.0076
     72 H          11.2245   15.6212   15.8471 H       2  LIG2        0.0371
     73 C          11.8555   17.3777   14.8453 C.2     2  LIG2       -0.0817
     74 H          12.0349   18.0004   15.5406 H       2  LIG2        0.0573
     75 C          12.3079   17.4950   13.6139 C.2     2  LIG2       -0.0811
     76 H          12.8113   18.2378   13.3034 H       2  LIG2        0.0573
     77 C          11.9461   16.3440   12.7741 C.3     2  LIG2        0.0162
     78 H          12.5696   16.0255   12.0585 H       2  LIG2        0.0378
     79 C          11.2938   15.3509   13.7115 C.3     2  LIG2        0.0889
     80 C          10.4419   16.0105   12.6959 C.3     2  LIG2        0.0178
     81 C           9.7728   15.3847   11.5099 C.3     2  LIG2       -0.0122
     82 H          10.2339   14.5849   11.1255 H       2  LIG2        0.0326
     83 C           8.3550   15.1272   12.1059 C.3     2  LIG2        0.0411
     84 H           8.4111   14.5268   12.9037 H       2  LIG2        0.0511
     85 C           8.2816   17.2649   11.1417 C.3     2  LIG2       -0.0265
     86 H           8.4394   18.2476   11.2322 H       2  LIG2        0.0311
     87 C           9.5291   16.5489   10.5287 C.3     2  LIG2       -0.0441
     88 H           9.3389   16.2148    9.6174 H       2  LIG2        0.0272
     89 H          10.3094   17.1582   10.4950 H       2  LIG2        0.0272
     90 C           7.0083   13.3311   11.0602 C.2     2  LIG2        0.4029
     91 C           7.1642   11.1985   12.0261 C.3     2  LIG2        0.0833
     92 H           6.1910   11.1496   12.1301 H       2  LIG2        0.0661
     93 H           7.5964   10.7210   12.7646 H       2  LIG2        0.0661
     94 H           7.4224   10.7859   11.1741 H       2  LIG2        0.0661
     95 C           5.7616   16.7203   15.3435 C.3     2  LIG2        0.0368
     96 H           6.0146   17.6468   15.5379 H       2  LIG2        0.0524
     97 H           5.8000   16.1909   16.1671 H       2  LIG2        0.0524
     98 H           4.8501   16.6989   14.9843 H       2  LIG2        0.0524
     99 C          12.9079   13.6757   13.9636 C.3     2  LIG2        0.0372
    100 H          13.4761   14.0743   13.2723 H       2  LIG2        0.0524
    101 H          13.0289   12.7029   13.9650 H       2  LIG2        0.0524
    102 H          13.1589   14.0358   14.8399 H       2  LIG2        0.0524
    103 N          12.2734   13.9312    9.0433 N.am    1  LIG1       -0.2632
    104 N           7.3510   14.6331   11.1548 N.am    2  LIG2       -0.2632
    105 O          13.5233   15.5871    9.9657 O.2     1  LIG1       -0.2263
    106 O          12.1687   16.0198    8.2113 O.3     1  LIG1       -0.4535
    107 O          13.0775   12.7626    5.6881 O.3     1  LIG1       -0.3791
    108 O           8.1827   14.7752    6.5751 O.3     1  LIG1       -0.3748
    109 O           6.2816   12.8747   10.2043 O.2     2  LIG2       -0.2263
    110 O           7.5810   12.5788   12.0368 O.3     2  LIG2       -0.4535
    111 O           6.6571   16.1764   14.3903 O.3     2  LIG2       -0.3791
    112 O          11.5414   13.9849   13.6953 O.3     2  LIG2       -0.3748
@<TRIPOS>BOND
     1    46    44    1
     2    23    22    1
     3    21    20    1
     4    47    44    1
     5    18    17    1
     6    44    45    1
     7    44   107    1
     8    22    20    1
     9    22    24    2
    10    20    17    1
    11    20    28    1
    12    19    17    1
    13    17    15    1
    14    49    48    1
    15   107    12    1
    16    24    25    1
    17    24    26    1
    18    48    50    1
    19    48   108    1
    20    48    51    1
    21    13    12    1
    22    28   108    1
    23    28    26    1
    24    28    29    1
    25    16    15    1
    26    15    29    1
    27    15    14    1
    28    12    14    1
    29    12     9    1
    30    26    29    1
    31    26    27    1
    32    10     9    1
    33    33    32    1
    34    29    30    1
    35    14    32    1
    36    14    34    1
    37    42    40    1
    38     9    11    1
    39     9     6    1
    40    32    30    1
    41    32   103    1
    42    43    40    1
    43   106    40    1
    44   106    39    1
    45    40    41    1
    46    35    34    1
    47    30    31    1
    48    30    36    1
    49     8     6    1
    50    34    36    1
    51    34     4    1
    52     6     7    1
    53     6     4    1
    54   103    39   am
    55   103     1    1
    56    39   105    2
    57    54    52    1
    58    37    36    1
    59    36    38    1
    60    56    55    1
    61    88    87    1
    62     4     1    1
    63     4     5    1
    64    53    52    1
    65    52    55    1
    66    52   104    1
    67     1     3    1
    68     1     2    1
    69   109    90    2
    70    55    57    1
    71    55    85    1
    72    58    57    1
    73    89    87    1
    74    87    85    1
    75    87    81    1
    76    57    59    1
    77    57    60    1
    78    90   104   am
    79    90   110    1
    80    82    81    1
    81    85    86    1
    82    85    65    1
    83   104    83    1
    84    94    91    1
    85    81    83    1
    86    81    80    1
    87    91   110    1
    88    91    92    1
    89    91    93    1
    90    78    77    1
    91    83    65    1
    92    83    84    1
    93    62    60    1
    94    60    61    1
    95    60    63    1
    96    65    63    1
    97    65    66    1
    98    80    77    1
    99    80    66    1
   100    80    79    1
   101    77    75    1
   102    77    79    1
   103    63    64    1
   104    63   111    1
   105    67    66    1
   106   100    99    1
   107    76    75    1
   108    66    68    1
   109    75    73    2
   110   112    79    1
   111   112    99    1
   112    79    71    1
   113    99   101    1
   114    99   102    1
   115   111    95    1
   116    73    71    1
   117    73    74    1
   118    68    71    1
   119    68    69    1
   120    68    70    1
   121    98    95    1
   122    71    72    1
   123    95    96    1
   124    95    97    1
