@<TRIPOS>MOLECULE
C13 H19 N3 O2
 37 37 0 0 0
SMALL
GASTEIGER

@<TRIPOS>ATOM
      1 O           4.4270    2.4041    3.5849 O.2     1  LIG1       -0.2060
      2 O           4.3470    3.8014    1.8135 O.3     1  LIG1       -0.4307
      3 N           7.5378    4.8549    4.8149 N.pl3   1  LIG1       -0.2340
      4 N           6.3398    2.9524    5.2941 N.pl3   1  LIG1       -0.2901
      5 N           5.8697    4.2352    3.3536 N.am    1  LIG1        0.0356
      6 C           9.2868    3.6030    5.9717 C.ar    1  LIG1       -0.0230
      7 H           9.4236    3.0862    5.1866 H       1  LIG1        0.0652
      8 C          10.0333    3.3470    7.1124 C.ar    1  LIG1       -0.0585
      9 H          10.6749    2.6463    7.1124 H       1  LIG1        0.0619
     10 C           9.8454    4.1107    8.2510 C.ar    1  LIG1       -0.0615
     11 H          10.3478    3.9261    9.0361 H       1  LIG1        0.0618
     12 C           8.9224    5.1467    8.2454 C.ar    1  LIG1       -0.0585
     13 H           8.8104    5.6835    9.0212 H       1  LIG1        0.0619
     14 C           8.1621    5.4036    7.1151 C.ar    1  LIG1       -0.0230
     15 H           7.5267    6.1095    7.1153 H       1  LIG1        0.0652
     16 C           8.3381    4.6186    5.9820 C.ar    1  LIG1        0.1023
     17 C           7.8181    6.0648    4.0401 C.3     1  LIG1        0.0612
     18 H           8.7272    6.0163    3.6763 H       1  LIG1        0.0624
     19 H           7.7405    6.8503    4.6209 H       1  LIG1        0.0624
     20 H           7.1754    6.1383    3.3045 H       1  LIG1        0.0624
     21 C           6.5483    3.9876    4.4688 C.2     1  LIG1        0.3867
     22 C           4.8670    3.3928    2.9969 C.2     1  LIG1        0.5041
     23 C           3.2882    3.0287    1.1456 C.3     1  LIG1        0.1083
     24 C           3.1024    3.7929   -0.1563 C.3     1  LIG1       -0.0253
     25 H           2.8136    4.7085    0.0406 H       1  LIG1        0.0268
     26 H           2.4232    3.3465   -0.7032 H       1  LIG1        0.0268
     27 H           3.9519    3.8167   -0.6449 H       1  LIG1        0.0268
     28 C           2.0040    3.0513    1.9598 C.3     1  LIG1       -0.0253
     29 H           2.1314    2.5382    2.7852 H       1  LIG1        0.0268
     30 H           1.2784    2.6520    1.4361 H       1  LIG1        0.0268
     31 H           1.7750    3.9778    2.1829 H       1  LIG1        0.0268
     32 C           3.7493    1.6068    0.8551 C.3     1  LIG1       -0.0253
     33 H           4.6401    1.6291    0.4471 H       1  LIG1        0.0268
     34 H           3.1193    1.1783    0.2394 H       1  LIG1        0.0268
     35 H           3.7858    1.0974    1.6913 H       1  LIG1        0.0268
     36 H           5.6770    2.4249    5.1016 H       1  LIG1        0.2545
     37 H           6.8135    2.8739    6.0481 H       1  LIG1        0.2545
@<TRIPOS>BOND
     1    26    24    1
     2    27    24    1
     3    24    25    1
     4    24    23    1
     5    34    32    1
     6    33    32    1
     7    32    23    1
     8    32    35    1
     9    23     2    1
    10    23    28    1
    11    30    28    1
    12     2    22    1
    13    28    31    1
    14    28    29    1
    15    22     5    1
    16    22     1    2
    17    20    17    1
    18     5    21    2
    19    18    17    1
    20    17    19    1
    21    17     3    1
    22    21     3    1
    23    21     4    1
    24     3    16    1
    25    36     4    1
    26     7     6    1
    27     4    37    1
    28     6    16   ar
    29     6     8   ar
    30    16    14   ar
    31     9     8    1
    32     8    10   ar
    33    14    15    1
    34    14    12   ar
    35    12    10   ar
    36    12    13    1
    37    10    11    1
