@<TRIPOS>MOLECULE
C20 H20 N2 O4
 46 51 0 0 0
SMALL
GASTEIGER

@<TRIPOS>ATOM
      1 O           3.3310   11.0433    8.6173 O.3     1  LIG1       -0.3707
      2 O           0.3340   14.8469    6.3511 O.2     1  LIG1       -0.2649
      3 O           0.4373   14.7807    3.4299 O.2     1  LIG1       -0.2645
      4 O           2.3490    8.7678    3.7090 O.3     1  LIG1       -0.3867
      5 H           1.5381    8.6584    3.6544 H       1  LIG1        0.2102
      6 N           1.5345   12.8957    6.0992 N.am    1  LIG1       -0.2618
      7 N           1.7411   12.8938    3.8317 N.am    1  LIG1       -0.2374
      8 C           2.0616   10.9826    0.1454 C.ar    1  LIG1       -0.0613
      9 H           2.1072   10.5429   -0.6736 H       1  LIG1        0.0618
     10 C           2.3413   10.3047    1.3065 C.ar    1  LIG1       -0.0543
     11 H           2.5863    9.4082    1.2595 H       1  LIG1        0.0622
     12 C           2.2676   10.9203    2.5487 C.ar    1  LIG1        0.0028
     13 C           2.6322   10.1487    3.8174 C.3     1  LIG1        0.0886
     14 H           3.6009   10.2340    3.9346 H       1  LIG1        0.0648
     15 C           1.9805   10.7542    5.0484 C.3     1  LIG1        0.0346
     16 H           1.0122   10.6136    4.9973 H       1  LIG1        0.0371
     17 C           2.4946   10.2191    6.4074 C.3     1  LIG1       -0.0090
     18 H           1.7818    9.7433    6.8620 H       1  LIG1        0.0302
     19 H           3.2263    9.6006    6.2590 H       1  LIG1        0.0302
     20 C           2.9765   11.3947    7.2834 C.3     1  LIG1        0.1066
     21 C           1.8120   12.4078    7.4539 C.3     1  LIG1        0.0641
     22 H           2.1216   13.1577    8.0038 H       1  LIG1        0.0536
     23 C           0.5695   11.8293    8.0757 C.3     1  LIG1       -0.0193
     24 H           0.1417   11.1004    7.5805 H       1  LIG1        0.0320
     25 C          -0.3566   12.7441    8.8256 C.3     1  LIG1       -0.0481
     26 H          -0.1093   13.6798    8.8955 H       1  LIG1        0.0269
     27 H          -1.3088   12.5766    8.7608 H       1  LIG1        0.0269
     28 C           4.4882   10.2903    8.7927 C.3     1  LIG1        0.0377
     29 H           4.3981    9.4527    8.3310 H       1  LIG1        0.0524
     30 H           4.6251   10.1254    9.7295 H       1  LIG1        0.0524
     31 H           5.2398   10.7719    8.4401 H       1  LIG1        0.0524
     32 C           2.2659   12.2526    5.0151 C.3     1  LIG1        0.1364
     33 C           0.4767   11.7495    9.5529 C.3     1  LIG1       -0.0481
     34 H           1.2271   12.0819   10.0695 H       1  LIG1        0.0269
     35 H           0.0276   10.9800    9.9348 H       1  LIG1        0.0269
     36 C           0.9084   13.9984    5.6748 C.2     1  LIG1        0.3043
     37 C           0.9900   13.9896    4.1606 C.2     1  LIG1        0.3079
     38 C           1.8868   12.2688    2.5761 C.ar    1  LIG1        0.0447
     39 C           1.7134   12.3109    0.1929 C.ar    1  LIG1       -0.0600
     40 H           1.5357   12.7690   -0.5966 H       1  LIG1        0.0618
     41 C           1.6257   12.9666    1.3972 C.ar    1  LIG1       -0.0398
     42 H           1.3940   13.8670    1.4263 H       1  LIG1        0.0636
     43 C           3.7333   12.4956    5.3089 C.2     1  LIG1       -0.0431
     44 H           4.3237   12.8920    4.7086 H       1  LIG1        0.0608
     45 C           4.0755   12.0820    6.5083 C.2     1  LIG1       -0.0512
     46 H           4.9300   12.2036    6.8534 H       1  LIG1        0.0599
@<TRIPOS>BOND
     1     9     8    1
     2    40    39    1
     3     8    39   ar
     4     8    10   ar
     5    39    41   ar
     6    11    10    1
     7    10    12   ar
     8    41    42    1
     9    41    38   ar
    10    12    38   ar
    11    12    13    1
    12    38     7    1
    13     3    37    2
    14     5     4    1
    15     4    13    1
    16    13    14    1
    17    13    15    1
    18     7    37   am
    19     7    32    1
    20    37    36    1
    21    44    43    1
    22    16    15    1
    23    32    15    1
    24    32    43    1
    25    32     6    1
    26    15    17    1
    27    43    45    2
    28    36     6   am
    29    36     2    2
    30     6    21    1
    31    19    17    1
    32    17    18    1
    33    17    20    1
    34    45    46    1
    35    45    20    1
    36    20    21    1
    37    20     1    1
    38    21    22    1
    39    21    23    1
    40    24    23    1
    41    23    25    1
    42    23    33    1
    43    29    28    1
    44    31    28    1
    45     1    28    1
    46    27    25    1
    47    28    30    1
    48    25    26    1
    49    25    33    1
    50    33    35    1
    51    33    34    1
