@<TRIPOS>MOLECULE
4132278.cif
 76 80 0 0 0
SMALL
GASTEIGER

@<TRIPOS>ATOM
      1 BR         -2.1744    3.0809   16.2491 Br      1  LIG1       -0.0503
      2 BR         -2.2636    0.0860   25.2443 Br      1  LIG1       -0.0503
      3 O          -7.4439    0.7551   17.5240 O.2     1  LIG1       -0.2495
      4 O          -9.8222    0.3328   20.2309 O.3     1  LIG1       -0.4671
      5 C          -3.5252    2.8817   17.5797 C.ar    1  LIG1        0.0179
      6 O          -8.3390    0.4913   21.9172 O.2     1  LIG1       -0.2495
      7 C          -4.9820    2.9201   22.7080 C.ar    1  LIG1       -0.0333
      8 C          -5.5436    2.5352   19.4503 C.ar    1  LIG1       -0.0286
      9 O          -6.9024   -0.5218   19.2965 O.3     1  LIG1       -0.4671
     10 C          -3.3605    1.2592   24.2271 C.ar    1  LIG1        0.0179
     11 C          -4.5524    3.8121   17.6439 C.ar    1  LIG1       -0.0475
     12 H          -4.5723    4.5535   17.0492 H       1  LIG1        0.0629
     13 C          -3.6007    3.0235   22.6624 C.ar    1  LIG1       -0.0563
     14 H          -3.2034    3.6743   22.0946 H       1  LIG1        0.0621
     15 C          -4.7465    1.1066   24.2862 C.ar    1  LIG1       -0.0475
     16 H          -5.1384    0.4440   24.8421 H       1  LIG1        0.0629
     17 C          -6.6539    2.2241   20.4641 C.3     1  LIG1        0.0623
     18 H          -6.2749    1.5132   21.0555 H       1  LIG1        0.0529
     19 C          -5.5333    1.9356   23.5191 C.ar    1  LIG1       -0.0563
     20 H          -6.4773    1.8322   23.5444 H       1  LIG1        0.0621
     21 C          -8.0852    4.3133   20.9625 C.3     1  LIG1        0.0236
     22 H          -7.6590    4.9660   20.3373 H       1  LIG1        0.0474
     23 C          -5.8428    3.9086   21.9561 C.3     1  LIG1        0.0250
     24 H          -6.1046    4.6372   22.5745 H       1  LIG1        0.0476
     25 H          -5.3057    4.3103   21.2295 H       1  LIG1        0.0476
     26 C          -8.6600    0.7551   20.7986 C.2     1  LIG1        0.3259
     27 C          -3.4618    1.8096   18.4280 C.ar    1  LIG1       -0.0475
     28 H          -2.7440    1.1903   18.3722 H       1  LIG1        0.0629
     29 C          -4.4670    1.6471   19.3675 C.ar    1  LIG1       -0.0560
     30 H          -4.4224    0.9146   19.9724 H       1  LIG1        0.0621
     31 C         -10.6412   -0.5248   21.0656 C.3     1  LIG1        0.0817
     32 H         -10.7404   -0.1201   21.9527 H       1  LIG1        0.0661
     33 H         -10.2113   -1.4020   21.1535 H       1  LIG1        0.0661
     34 H         -11.5247   -0.6331   20.6550 H       1  LIG1        0.0661
     35 C          -9.2199    3.5916   20.2123 C.3     1  LIG1       -0.0190
     36 H          -9.7366    3.0570   20.8814 H       1  LIG1        0.0320
     37 C          -7.3993    0.5819   18.7068 C.2     1  LIG1        0.3259
     38 C          -6.4033   -1.5467   18.4009 C.3     1  LIG1        0.0817
     39 H          -5.7623   -1.1509   17.7757 H       1  LIG1        0.0661
     40 H          -7.1504   -1.9366   17.9008 H       1  LIG1        0.0661
     41 H          -5.9591   -2.2477   18.9231 H       1  LIG1        0.0661
     42 C          -5.5490    3.6408   18.5885 C.ar    1  LIG1       -0.0560
     43 H          -6.2461    4.2827   18.6561 H       1  LIG1        0.0621
     44 N          -7.0517    3.3209   21.3816 N.3     1  LIG1       -0.2856
     45 C          -8.7328    2.6484   19.1427 C.3     1  LIG1       -0.0204
     46 H          -8.2019    3.1466   18.4719 H       1  LIG1        0.0285
     47 H          -9.5062    2.2369   18.6814 H       1  LIG1        0.0285
     48 C          -2.7875    2.2044   23.4211 C.ar    1  LIG1       -0.0475
     49 H          -1.8424    2.2950   23.3822 H       1  LIG1        0.0629
     50 O         -13.8871    7.2974   21.2633 O.3     1  LIG1       -0.4951
     51 C         -10.1215    5.6050   21.9544 C.ar    1  LIG1       -0.0368
     52 C          -8.6634    5.1107   22.1960 C.3     1  LIG1        0.0062
     53 C          -7.8523    6.4290   22.4039 C.3     1  LIG1       -0.0543
     54 H          -8.1812    6.8928   23.2014 H       1  LIG1        0.0239
     55 H          -7.9623    7.0070   21.6198 H       1  LIG1        0.0239
     56 H          -6.9024    6.2134   22.5188 H       1  LIG1        0.0239
     57 C         -10.7818    6.2932   22.9564 C.ar    1  LIG1       -0.0543
     58 H         -10.3547    6.3847   23.8013 H       1  LIG1        0.0622
     59 C         -10.7847    5.4484   20.7361 C.ar    1  LIG1       -0.0399
     60 C          -8.6459    4.2512   23.4751 C.3     1  LIG1       -0.0543
     61 H          -9.0094    3.3622   23.2774 H       1  LIG1        0.0239
     62 H          -9.1938    4.6815   24.1662 H       1  LIG1        0.0239
     63 H          -7.7254    4.1636   23.7979 H       1  LIG1        0.0239
     64 C         -14.3507    8.3075   22.1453 C.3     1  LIG1        0.0788
     65 H         -13.6514    8.9839   22.2619 H       1  LIG1        0.0660
     66 H         -14.5683    7.9078   23.0122 H       1  LIG1        0.0660
     67 H         -15.1522    8.7270   21.7685 H       1  LIG1        0.0660
     68 C         -10.1591    4.6519   19.6327 C.3     1  LIG1       -0.0230
     69 H          -9.6500    5.2545   19.0346 H       1  LIG1        0.0316
     70 H         -10.8666    4.2119   19.0971 H       1  LIG1        0.0316
     71 C         -12.6716    6.7195   21.5675 C.ar    1  LIG1        0.1204
     72 C         -12.0394    6.8554   22.7874 C.ar    1  LIG1       -0.0197
     73 H         -12.4586    7.3250   23.4988 H       1  LIG1        0.0654
     74 C         -12.0675    6.0037   20.5671 C.ar    1  LIG1       -0.0165
     75 H         -12.5237    5.8807   19.7426 H       1  LIG1        0.0657
     76 C          -7.8781    1.5684   19.7764 C.3     1  LIG1        0.1833
@<TRIPOS>BOND
     1     1     5    1
     2    12    11    1
     3     3    37    2
     4     5    11   ar
     5     5    27   ar
     6    11    42   ar
     7    39    38    1
     8    40    38    1
     9    28    27    1
    10    38    41    1
    11    38     9    1
    12    27    29   ar
    13    46    45    1
    14    42    43    1
    15    42     8   ar
    16    47    45    1
    17    37     9    1
    18    37    76    1
    19    69    68    1
    20    70    68    1
    21    45    76    1
    22    45    35    1
    23    29     8   ar
    24    29    30    1
    25     8    17    1
    26    68    35    1
    27    68    59    1
    28    75    74    1
    29    76    17    1
    30    76    26    1
    31    35    36    1
    32    35    21    1
    33     4    26    1
    34     4    31    1
    35    22    21    1
    36    17    18    1
    37    17    44    1
    38    74    59   ar
    39    74    71   ar
    40    34    31    1
    41    59    51   ar
    42    26     6    2
    43    21    44    1
    44    21    52    1
    45    31    33    1
    46    31    32    1
    47    25    23    1
    48    50    71    1
    49    50    64    1
    50    44    23    1
    51    71    72   ar
    52    55    53    1
    53    67    64    1
    54    51    52    1
    55    51    57   ar
    56    23    24    1
    57    23     7    1
    58    14    13    1
    59    64    65    1
    60    64    66    1
    61    52    53    1
    62    52    60    1
    63    53    56    1
    64    53    54    1
    65    13     7   ar
    66    13    48   ar
    67     7    19   ar
    68    72    57   ar
    69    72    73    1
    70    57    58    1
    71    61    60    1
    72    49    48    1
    73    48    10   ar
    74    60    63    1
    75    60    62    1
    76    19    20    1
    77    19    15   ar
    78    10    15   ar
    79    10     2    1
    80    15    16    1
