@<TRIPOS>MOLECULE
4133333.cif
 25 25 0 0 0
SMALL
GASTEIGER

@<TRIPOS>ATOM
      1 O           0.2869    4.2095    2.8903 O.3     1  LIG1       -0.4675
      2 O          -1.5963    3.4719    3.8798 O.2     1  LIG1       -0.2501
      3 C          -0.8513    2.4995    1.7654 C.3     1  LIG1        0.1057
      4 C           0.6045   -0.9520    2.0994 C.2     1  LIG1       -0.0511
      5 H           0.1006   -1.7548    2.1642 H       1  LIG1        0.0626
      6 C          -0.1184    0.1603    1.8413 C.2     1  LIG1       -0.0425
      7 C           3.0156   -0.1860    1.8675 C.ar    1  LIG1       -0.0546
      8 H           2.7442    0.6014    1.4106 H       1  LIG1        0.0623
      9 C           2.0469   -1.1058    2.2941 C.ar    1  LIG1       -0.0248
     10 C          -0.8013    3.4273    2.9827 C.2     1  LIG1        0.3156
     11 C           0.3929    1.5746    1.7306 C.3     1  LIG1       -0.0094
     12 H           0.8900    1.6964    0.8833 H       1  LIG1        0.0324
     13 H           0.9988    1.7826    2.4854 H       1  LIG1        0.0324
     14 C           2.4928   -2.2674    2.9506 C.ar    1  LIG1       -0.0546
     15 H           1.8581   -2.9182    3.2264 H       1  LIG1        0.0623
     16 C           4.3690   -0.4098    2.1036 C.ar    1  LIG1       -0.0612
     17 H           5.0118    0.2214    1.8021 H       1  LIG1        0.0618
     18 C           4.7857   -1.5534    2.7793 C.ar    1  LIG1       -0.0617
     19 H           5.7091   -1.6980    2.9491 H       1  LIG1        0.0618
     20 C           3.8427   -2.4829    3.2043 C.ar    1  LIG1       -0.0612
     21 H           4.1206   -3.2643    3.6676 H       1  LIG1        0.0618
     22 C           0.5196    5.1360    3.9780 C.3     1  LIG1        0.0817
     23 H           1.0089    5.9164    3.6433 H       1  LIG1        0.0661
     24 H           1.0472    4.6944    4.6760 H       1  LIG1        0.0661
     25 H          -0.3395    5.4243    4.3511 H       1  LIG1        0.0661
@<TRIPOS>BOND
     1    12    11    1
     2     8     7    1
     3    11     3    1
     4    11     6    1
     5    11    13    1
     6     3    10    1
     7    17    16    1
     8     6     4    2
     9     7    16   ar
    10     7     9   ar
    11     4     5    1
    12     4     9    1
    13    16    18   ar
    14     9    14   ar
    15    18    19    1
    16    18    20   ar
    17     1    10    1
    18     1    22    1
    19    14    20   ar
    20    14    15    1
    21    10     2    2
    22    20    21    1
    23    23    22    1
    24    22    25    1
    25    22    24    1
