@<TRIPOS>MOLECULE
C3 H N8 O2, H4 N O
 20 20 0 0 0
SMALL
GASTEIGER

@<TRIPOS>ATOM
      1 N           5.8644    5.4668    2.4283 N.ar    1  LIG1       -0.1214
      2 C           5.3215    4.4539    1.7925 C.ar    1  LIG1        0.2978
      3 N           4.1147    3.8627    2.0733 N.pl3   1  LIG1       -0.0218
      4 N           3.3161    4.4586    2.9442 N.pl3   1  LIG1        0.1472
      5 O           3.5437    5.5399    3.5063 O.2     1  LIG1       -0.1077
      6 O           2.2336    3.8480    3.1665 O.2     1  LIG1       -0.1077
      7 N           5.8893    3.7525    0.6921 N.ar    1  LIG1       -0.1045
      8 N           6.9873    4.1580    0.1745 N.ar    1  LIG1       -0.1036
      9 C           7.5798    5.2475    0.7464 C.ar    1  LIG1        0.2905
     10 N           8.6848    5.8746    0.3773 N.ar    1  LIG1       -0.1056
     11 N           8.8663    6.8875    1.2912 N.ar    1  LIG1       -0.1341
     12 C           7.8811    6.8497    2.1704 C.ar    1  LIG1        0.1437
     13 H           7.7779    7.4289    2.8911 H       1  LIG1        0.1067
     14 N           7.0459    5.8333    1.8541 N.ar    1  LIG1       -0.1796
     15 N           1.9346    5.4481    5.8989 N.4     1  LIG1        0.3836
     16 H           2.2683    6.2032    5.5660 H       1  LIG1        0.2316
     17 H           2.5603    4.8158    5.8856 H       1  LIG1        0.2316
     18 H           1.6695    5.5849    6.7377 H       1  LIG1        0.2316
     19 O           0.8382    5.0384    5.1220 O.3     1  LIG1       -0.3476
     20 H           1.1844    4.6337    4.4864 H       1  LIG1        0.2692
@<TRIPOS>BOND
     1     8     7   ar
     2     8     9   ar
     3    10     9   ar
     4    10    11   ar
     5     7     2   ar
     6     9    14   ar
     7    11    12   ar
     8     2     3    1
     9     2     1   ar
    10    14    12   ar
    11    14     1   ar
    12     3     4    1
    13    12    13    1
    14     4     6    2
    15     4     5    2
    16    20    19    1
    17    19    15    1
    18    16    15    1
    19    17    15    1
    20    15    18    1
