@<TRIPOS>MOLECULE
spiroCC
 51 55 0 0 0
SMALL
GASTEIGER

@<TRIPOS>ATOM
      1 CL          5.1270    5.2564   10.6641 Cl      1  LIG1       -0.1083
      2 CL          6.9473    7.4043   11.4406 Cl      1  LIG1       -0.1083
      3 C           3.5891    7.1785    7.6448 C.ar    1  LIG1       -0.0160
      4 C           2.8328    6.1485    6.9300 C.2     1  LIG1       -0.0161
      5 C           3.4358    5.8625    5.7697 C.2     1  LIG1       -0.0218
      6 C           3.3971    7.8227    8.8670 C.ar    1  LIG1       -0.0540
      7 H           2.6602    7.6239    9.3970 H       1  LIG1        0.0624
      8 C           1.9922    4.3587    8.4089 C.ar    1  LIG1       -0.0282
      9 C           2.7360    4.7916    5.0734 C.ar    1  LIG1       -0.0159
     10 C           1.6690    4.7679    9.6976 C.ar    1  LIG1       -0.0571
     11 H           1.2037    5.5628    9.8227 H       1  LIG1        0.0621
     12 C           1.6512    4.4282    5.8832 C.ar    1  LIG1       -0.0208
     13 C           0.7934    3.4285    5.4712 C.ar    1  LIG1       -0.0565
     14 H           0.0552    3.1987    5.9890 H       1  LIG1        0.0621
     15 C           5.6201    8.4448    7.2557 C.ar    1  LIG1       -0.0571
     16 H           6.3573    8.6505    6.7273 H       1  LIG1        0.0621
     17 C           0.3113    5.9776    7.3650 C.ar    1  LIG1       -0.0282
     18 C           4.6938    7.5120    6.8384 C.ar    1  LIG1       -0.0270
     19 C           2.0311    4.0044   10.8023 C.ar    1  LIG1       -0.0615
     20 H           1.8150    4.2967   11.6586 H       1  LIG1        0.0618
     21 C          -0.8397    5.2734    7.7149 C.ar    1  LIG1       -0.0571
     22 H          -0.7800    4.3649    7.9003 H       1  LIG1        0.0621
     23 C           5.4321    9.0744    8.4848 C.ar    1  LIG1       -0.0614
     24 H           6.0494    9.7056    8.7783 H       1  LIG1        0.0618
     25 C           4.3307    8.7672    9.2743 C.ar    1  LIG1       -0.0612
     26 H           4.2166    9.2010   10.0888 H       1  LIG1        0.0618
     27 C           1.6395    5.2438    7.1936 C.3     1  LIG1        0.0718
     28 C           0.1983    7.3429    7.1289 C.ar    1  LIG1       -0.0571
     29 H           0.9552    7.8349    6.9069 H       1  LIG1        0.0621
     30 C           4.6805    6.6841    5.5433 C.3     1  LIG1        0.0516
     31 C           2.9975    4.1326    3.8734 C.ar    1  LIG1       -0.0540
     32 H           3.7272    4.3697    3.3459 H       1  LIG1        0.0624
     33 C           1.0470    2.7703    4.2725 C.ar    1  LIG1       -0.0614
     34 H           0.4765    2.0912    3.9934 H       1  LIG1        0.0618
     35 C           2.7100    2.8149   10.6329 C.ar    1  LIG1       -0.0617
     36 H           2.9287    2.2895   11.3681 H       1  LIG1        0.0618
     37 C           2.7053    3.1763    8.2555 C.ar    1  LIG1       -0.0571
     38 H           2.9478    2.8941    7.4036 H       1  LIG1        0.0621
     39 C           2.1364    3.1108    3.4865 C.ar    1  LIG1       -0.0612
     40 H           2.2926    2.6513    2.6940 H       1  LIG1        0.0618
     41 C          -2.0670    5.9017    7.7903 C.ar    1  LIG1       -0.0615
     42 H          -2.8268    5.4121    8.0089 H       1  LIG1        0.0618
     43 C          -1.0319    7.9796    7.2220 C.ar    1  LIG1       -0.0615
     44 H          -1.0930    8.8948    7.0688 H       1  LIG1        0.0618
     45 C           3.0614    2.4111    9.3568 C.ar    1  LIG1       -0.0615
     46 H           3.5393    1.6216    9.2373 H       1  LIG1        0.0618
     47 C          -2.1673    7.2591    7.5422 C.ar    1  LIG1       -0.0617
     48 H          -2.9926    7.6842    7.5898 H       1  LIG1        0.0618
     49 C           6.5861    6.1477   10.2497 C.3     1  LIG1        0.0970
     50 H           6.4752    6.5561    9.3770 H       1  LIG1        0.0597
     51 H           7.3333    5.5311   10.1974 H       1  LIG1        0.0597
@<TRIPOS>BOND
     1    40    39    1
     2    32    31    1
     3    39    31   ar
     4    39    33   ar
     5    31     9   ar
     6    34    33    1
     7    33    13   ar
     8     9     5    1
     9     9    12   ar
    10    13    12   ar
    11    13    14    1
    12    30     5    1
    13    30    18    1
    14     5     4    2
    15    12    27    1
    16    16    15    1
    17    18    15   ar
    18    18     3   ar
    19    29    28    1
    20     4    27    1
    21     4     3    1
    22    44    43    1
    23    28    43   ar
    24    28    17   ar
    25    27    17    1
    26    27     8    1
    27    43    47   ar
    28    15    23   ar
    29    17    21   ar
    30    38    37    1
    31    47    48    1
    32    47    41   ar
    33     3     6   ar
    34    21    41   ar
    35    21    22    1
    36    41    42    1
    37    37     8   ar
    38    37    45   ar
    39     8    10   ar
    40    23    24    1
    41    23    25   ar
    42     6    25   ar
    43     6     7    1
    44    46    45    1
    45    25    26    1
    46    45    35   ar
    47    50    49    1
    48    10    11    1
    49    10    19   ar
    50    51    49    1
    51    49     1    1
    52    49     2    1
    53    35    19   ar
    54    35    36    1
    55    19    20    1
