@<TRIPOS>MOLECULE
C21 H29 N O2
 53 54 0 0 0
SMALL
GASTEIGER

@<TRIPOS>ATOM
      1 O          12.5723    1.1081    1.4894 O.2     1  LIG1       -0.2741
      2 O          15.8101    4.3149    1.5157 O.2     1  LIG1       -0.2695
      3 N          14.2125    2.6709    1.8216 N.am    1  LIG1       -0.2059
      4 C          14.1042    2.8486    6.0055 C.ar    1  LIG1       -0.0614
      5 H          14.1320    2.9028    6.9536 H       1  LIG1        0.0618
      6 C          14.7317    1.7957    5.3590 C.ar    1  LIG1       -0.0600
      7 H          15.1531    1.1010    5.8517 H       1  LIG1        0.0618
      8 C          14.7279    1.7848    3.9727 C.ar    1  LIG1       -0.0396
      9 H          15.1787    1.0906    3.5076 H       1  LIG1        0.0636
     10 C          14.0713    2.7765    3.2560 C.ar    1  LIG1        0.0479
     11 C          13.4779    1.7689    1.0464 C.2     1  LIG1        0.2345
     12 C          14.0076    1.8131   -0.3847 C.3     1  LIG1        0.0712
     13 H          13.2478    1.9820   -1.0114 H       1  LIG1        0.0450
     14 C          14.7180    0.4638   -0.7828 C.3     1  LIG1       -0.0173
     15 C          15.3305    0.6140   -2.2086 C.3     1  LIG1       -0.0406
     16 H          16.0067    1.3489   -2.1581 H       1  LIG1        0.0301
     17 C          14.3241    1.0101   -3.2895 C.3     1  LIG1       -0.0621
     18 H          13.6800    0.2822   -3.4201 H       1  LIG1        0.0233
     19 H          14.7978    1.1815   -4.1302 H       1  LIG1        0.0233
     20 H          13.8474    1.8209   -3.0114 H       1  LIG1        0.0233
     21 C          16.0734   -0.6411   -2.6797 C.3     1  LIG1       -0.0621
     22 H          16.5012   -0.4632   -3.5434 H       1  LIG1        0.0233
     23 H          15.4365   -1.3800   -2.7757 H       1  LIG1        0.0233
     24 H          16.7579   -0.8826   -2.0208 H       1  LIG1        0.0233
     25 C          15.8271    0.1593    0.2311 C.3     1  LIG1       -0.0586
     26 H          16.2168   -0.7175    0.0348 H       1  LIG1        0.0235
     27 H          15.4503    0.1539    1.1357 H       1  LIG1        0.0235
     28 H          16.5230    0.8475    0.1711 H       1  LIG1        0.0235
     29 C          13.4381    3.8204    5.2830 C.ar    1  LIG1       -0.0563
     30 H          13.0177    4.5284    5.7552 H       1  LIG1        0.0621
     31 C          13.3566    3.8073    3.8748 C.ar    1  LIG1       -0.0201
     32 C          12.5156    4.9065    3.1980 C.3     1  LIG1       -0.0109
     33 C          11.1688    5.0251    3.9406 C.3     1  LIG1       -0.0560
     34 H          10.7220    4.1529    3.9462 H       1  LIG1        0.0238
     35 H          10.5998    5.6804    3.4848 H       1  LIG1        0.0238
     36 H          11.3280    5.3161    4.8621 H       1  LIG1        0.0238
     37 C          13.2619    6.2457    3.2888 C.3     1  LIG1       -0.0560
     38 H          12.6987    6.9592    2.9209 H       1  LIG1        0.0238
     39 H          14.0957    6.1906    2.7767 H       1  LIG1        0.0238
     40 H          13.4676    6.4426    4.2267 H       1  LIG1        0.0238
     41 C          12.1543    4.6492    1.7290 C.3     1  LIG1       -0.0560
     42 H          12.9607    4.7229    1.1765 H       1  LIG1        0.0238
     43 H          11.4935    5.3113    1.4341 H       1  LIG1        0.0238
     44 H          11.7768    3.7495    1.6380 H       1  LIG1        0.0238
     45 C          15.0895    3.4487    1.0718 C.2     1  LIG1        0.2535
     46 C          14.9040    3.0339   -0.3482 C.2     1  LIG1        0.0206
     47 C          15.4057    3.7727   -1.3302 C.2     1  LIG1       -0.0898
     48 H          15.8848    4.5682   -1.1288 H       1  LIG1        0.0539
     49 H          15.2862    3.5063   -2.2337 H       1  LIG1        0.0539
     50 C          13.6746   -0.6563   -0.7507 C.3     1  LIG1       -0.0586
     51 H          13.3230   -0.7494    0.1591 H       1  LIG1        0.0235
     52 H          14.0910   -1.4988   -1.0273 H       1  LIG1        0.0235
     53 H          12.9427   -0.4377   -1.3635 H       1  LIG1        0.0235
@<TRIPOS>BOND
     1    19    17    1
     2    22    21    1
     3    18    17    1
     4    17    20    1
     5    17    15    1
     6    23    21    1
     7    21    15    1
     8    21    24    1
     9    49    47    1
    10    15    16    1
    11    15    14    1
    12    53    50    1
    13    47    48    1
    14    47    46    2
    15    52    50    1
    16    13    12    1
    17    14    50    1
    18    14    12    1
    19    14    25    1
    20    50    51    1
    21    12    46    1
    22    12    11    1
    23    46    45    1
    24    26    25    1
    25    28    25    1
    26    25    27    1
    27    11     1    2
    28    11     3   am
    29    45     2    2
    30    45     3   am
    31    42    41    1
    32    43    41    1
    33    44    41    1
    34    41    32    1
    35     3    10    1
    36    39    37    1
    37    38    37    1
    38    32    37    1
    39    32    31    1
    40    32    33    1
    41    10    31   ar
    42    10     8   ar
    43    37    40    1
    44    35    33    1
    45     9     8    1
    46    31    29   ar
    47    33    34    1
    48    33    36    1
    49     8     6   ar
    50    29    30    1
    51    29     4   ar
    52     6     7    1
    53     6     4   ar
    54     4     5    1
