@<TRIPOS>MOLECULE
4133044.cif
 120 130 0 0 0
SMALL
GASTEIGER

@<TRIPOS>ATOM
      1 CL         10.2204    3.9870    6.7475 Cl      1  LIG1       -0.0813
      2 C          10.2652    2.6906    5.5731 C.2     1  LIG1        0.0661
      3 C           9.4262    2.7785    4.5240 C.2     1  LIG1        0.0604
      4 C           9.1964    1.8511    3.3855 C.ar    1  LIG1        0.0097
      5 C           9.7014    0.5959    3.0568 C.ar    1  LIG1       -0.0521
      6 H          10.3546    0.1747    3.6034 H       1  LIG1        0.0624
      7 C           9.2240   -0.0261    1.9080 C.ar    1  LIG1       -0.0611
      8 H           9.5552   -0.8855    1.6754 H       1  LIG1        0.0618
      9 C           8.2732    0.5788    1.0877 C.ar    1  LIG1       -0.0610
     10 H           7.9692    0.1272    0.3086 H       1  LIG1        0.0618
     11 C           7.7647    1.8369    1.3960 C.ar    1  LIG1       -0.0490
     12 H           7.1166    2.2572    0.8432 H       1  LIG1        0.0625
     13 C           8.2447    2.4552    2.5491 C.ar    1  LIG1        0.0460
     14 O           7.1015    4.6072    2.6671 O.2     1  LIG1       -0.2698
     15 C           7.8688    3.7632    3.1300 C.2     1  LIG1        0.2489
     16 N           8.5689    3.8705    4.3043 N.am    1  LIG1       -0.2798
     17 H           8.4899    4.5489    4.8593 H       1  LIG1        0.1552
     18 C          11.2787    1.6678    5.8202 C.2     1  LIG1       -0.0250
     19 C          11.0568    0.3650    6.0092 C.2     1  LIG1       -0.0786
     20 H          10.1935   -0.0178    6.1138 H       1  LIG1        0.0575
     21 C          12.3432   -0.4291    6.0361 C.3     1  LIG1       -0.0302
     22 H          12.5184   -0.8697    5.1677 H       1  LIG1        0.0311
     23 H          12.3357   -1.1105    6.7551 H       1  LIG1        0.0311
     24 C          13.3639    0.6838    6.3230 C.3     1  LIG1       -0.0248
     25 H          13.2968    0.8638    7.3044 H       1  LIG1        0.0315
     26 C          12.7826    1.9330    5.6314 C.3     1  LIG1       -0.0025
     27 C          13.0072    1.9665    4.1086 C.3     1  LIG1       -0.0552
     28 H          13.9540    2.1376    3.9218 H       1  LIG1        0.0238
     29 H          12.4627    2.6797    3.7139 H       1  LIG1        0.0238
     30 H          12.7480    1.1050    3.7210 H       1  LIG1        0.0238
     31 C          13.4373    3.1517    6.2853 C.3     1  LIG1       -0.0427
     32 H          13.1769    3.1971    7.2389 H       1  LIG1        0.0274
     33 H          13.1213    3.9774    5.8394 H       1  LIG1        0.0274
     34 C          14.9835    3.0563    6.1698 C.3     1  LIG1       -0.0451
     35 H          15.2407    3.2019    5.2253 H       1  LIG1        0.0271
     36 H          15.3864    3.7845    6.7059 H       1  LIG1        0.0271
     37 C          15.5677    1.7274    6.6356 C.3     1  LIG1       -0.0124
     38 H          15.4239    1.6879    7.6243 H       1  LIG1        0.0352
     39 C          14.8433    0.4976    6.0422 C.3     1  LIG1       -0.0300
     40 H          14.9966    0.4600    5.0547 H       1  LIG1        0.0310
     41 C          15.4053   -0.7531    6.6948 C.3     1  LIG1       -0.0454
     42 H          14.9069   -1.5441    6.3690 H       1  LIG1        0.0271
     43 H          15.2786   -0.6954    7.6750 H       1  LIG1        0.0271
     44 C          16.8969   -0.9319    6.3863 C.3     1  LIG1       -0.0270
     45 H          17.2907   -1.5291    7.0705 H       1  LIG1        0.0313
     46 H          16.9855   -1.3828    5.5096 H       1  LIG1        0.0313
     47 C          17.6978    0.3553    6.3504 C.ar    1  LIG1       -0.0405
     48 C          17.0726    1.6187    6.4169 C.ar    1  LIG1       -0.0406
     49 C          17.8877    2.7494    6.3489 C.ar    1  LIG1       -0.0546
     50 H          17.4805    3.6067    6.3954 H       1  LIG1        0.0622
     51 C          19.2822    2.6749    6.2147 C.ar    1  LIG1       -0.0197
     52 H          19.8072    3.4652    6.1701 H       1  LIG1        0.0654
     53 C          19.8802    1.4242    6.1482 C.ar    1  LIG1        0.1204
     54 C          19.0825    0.2697    6.2206 C.ar    1  LIG1       -0.0165
     55 H          19.4949   -0.5856    6.1803 H       1  LIG1        0.0657
     56 O           8.0070   -1.0429    5.5898 O.2     2  LIG2       -0.2698
     57 C          22.0596    2.3658    5.9041 C.3     1  LIG1        0.0788
     58 H          21.7801    2.9005    5.1314 H       1  LIG1        0.0660
     59 H          22.9918    2.0864    5.7871 H       1  LIG1        0.0660
     60 H          21.9789    2.9025    6.7193 H       1  LIG1        0.0660
     61 CL          4.8256   -0.4136    1.5462 Cl      2  LIG2       -0.0813
     62 C           4.6715    0.7933    2.8073 C.2     2  LIG2        0.0661
     63 C           5.4623    0.6481    3.8889 C.2     2  LIG2        0.0604
     64 C           5.5532    1.4615    5.1149 C.ar    2  LIG2        0.0097
     65 C           4.8055    2.5349    5.6112 C.ar    2  LIG2       -0.0521
     66 H           4.0906    2.9086    5.1095 H       2  LIG2        0.0624
     67 C           5.1445    3.0399    6.8680 C.ar    2  LIG2       -0.0611
     68 H           4.6373    3.7576    7.2279 H       2  LIG2        0.0618
     69 C           6.2058    2.5222    7.6104 C.ar    2  LIG2       -0.0610
     70 H           6.4224    2.9055    8.4523 H       2  LIG2        0.0618
     71 C           6.9493    1.4503    7.1283 C.ar    2  LIG2       -0.0490
     72 H           7.6746    1.0929    7.6270 H       2  LIG2        0.0625
     73 C           6.5972    0.9200    5.8940 C.ar    2  LIG2        0.0460
     74 O          21.2218    1.2045    6.0099 O.3     1  LIG1       -0.4951
     75 C           7.1246   -0.2771    5.2088 C.2     2  LIG2        0.2489
     76 N           6.4055   -0.3836    4.0401 N.am    2  LIG2       -0.2798
     77 H           6.5232   -1.0271    3.4517 H       2  LIG2        0.1552
     78 C           3.7531    1.9025    2.5341 C.2     2  LIG2       -0.0250
     79 C           4.1446    3.1800    2.3821 C.2     2  LIG2       -0.0786
     80 H           5.0463    3.4696    2.4546 H       2  LIG2        0.0575
     81 C           2.9871    4.0992    2.0832 C.3     2  LIG2       -0.0302
     82 H           2.9253    4.3072    1.1174 H       2  LIG2        0.0311
     83 H           3.0466    4.9418    2.5992 H       2  LIG2        0.0311
     84 C           1.8152    3.2284    2.5518 C.3     2  LIG2       -0.0248
     85 H           1.8052    3.3025    3.5490 H       2  LIG2        0.0315
     86 C           2.2502    1.7758    2.2436 C.3     2  LIG2       -0.0025
     87 C           2.0866    1.4004    0.7530 C.3     2  LIG2       -0.0552
     88 H           2.4064    0.4849    0.6098 H       2  LIG2        0.0238
     89 H           2.6093    2.0187    0.2009 H       2  LIG2        0.0238
     90 H           1.1409    1.4587    0.5032 H       2  LIG2        0.0238
     91 C           1.4045    0.8671    3.1354 C.3     2  LIG2       -0.0427
     92 H           1.5961    1.0636    4.0866 H       2  LIG2        0.0274
     93 H           1.6389   -0.0791    2.9629 H       2  LIG2        0.0274
     94 C          -0.0969    1.0890    2.8527 C.3     2  LIG2       -0.0451
     95 H          -0.6248    0.5766    3.5152 H       2  LIG2        0.0271
     96 H          -0.3089    0.7279    1.9557 H       2  LIG2        0.0271
     97 C          -0.5341    2.5751    2.9085 C.3     2  LIG2       -0.0124
     98 H          -0.4468    2.8537    3.8647 H       2  LIG2        0.0352
     99 C           0.3955    3.5048    2.1063 C.3     2  LIG2       -0.0300
    100 H           0.3136    3.2817    1.1348 H       2  LIG2        0.0310
    101 C          -0.0516    4.9514    2.3187 C.3     2  LIG2       -0.0454
    102 H          -0.0931    5.1487    3.2880 H       2  LIG2        0.0271
    103 H           0.6042    5.5673    1.9057 H       2  LIG2        0.0271
    104 C          -1.4219    5.1651    1.6918 C.3     2  LIG2       -0.0270
    105 H          -1.8078    6.0062    2.0450 H       2  LIG2        0.0313
    106 H          -1.3144    5.2702    0.7138 H       2  LIG2        0.0313
    107 C          -2.3864    4.0344    1.9602 C.ar    2  LIG2       -0.0405
    108 C          -1.9954    2.8120    2.5300 C.ar    2  LIG2       -0.0406
    109 C          -2.9894    1.8384    2.7355 C.ar    2  LIG2       -0.0546
    110 H          -2.7523    1.0147    3.1456 H       2  LIG2        0.0622
    111 C          -4.3112    2.0492    2.3537 C.ar    2  LIG2       -0.0197
    112 H          -4.9647    1.3773    2.5071 H       2  LIG2        0.0654
    113 C          -4.6724    3.2493    1.7460 C.ar    2  LIG2        0.1204
    114 C          -3.7206    4.2377    1.5670 C.ar    2  LIG2       -0.0165
    115 H          -3.9724    5.0646    1.1734 H       2  LIG2        0.0657
    116 O          -5.9914    3.3789    1.3766 O.3     2  LIG2       -0.4951
    117 C          -6.3306    4.5551    0.6421 C.3     2  LIG2        0.0788
    118 H          -6.2219    5.3414    1.2167 H       2  LIG2        0.0660
    119 H          -7.2618    4.4956    0.3426 H       2  LIG2        0.0660
    120 H          -5.7413    4.6351   -0.1365 H       2  LIG2        0.0660
@<TRIPOS>BOND
     1   120   117    1
     2    89    87    1
     3    10     9    1
     4   119   117    1
     5    90    87    1
     6    88    87    1
     7   117   118    1
     8   117   116    1
     9   106   104    1
    10    87    86    1
    11    12    11    1
    12     9    11   ar
    13     9     7   ar
    14    82    81    1
    15   100    99    1
    16   115   114    1
    17   116   113    1
    18    11    13   ar
    19    61    62    1
    20   114   113   ar
    21   114   107   ar
    22     8     7    1
    23   104   107    1
    24   104   105    1
    25   104   101    1
    26   113   111   ar
    27   103   101    1
    28     7     5   ar
    29    96    94    1
    30   107   108   ar
    31    81    79    1
    32    81    84    1
    33    81    83    1
    34    99   101    1
    35    99    84    1
    36    99    97    1
    37    86    78    1
    38    86    84    1
    39    86    91    1
    40   101   102    1
    41   111   112    1
    42   111   109   ar
    43    79    80    1
    44    79    78    2
    45   108   109   ar
    46   108    97    1
    47    78    62    1
    48    13    15    1
    49    13     4   ar
    50    84    85    1
    51    14    15    2
    52   109   110    1
    53    62    63    2
    54    94    97    1
    55    94    91    1
    56    94    95    1
    57    97    98    1
    58    93    91    1
    59     5     4   ar
    60     5     6    1
    61    15    16   am
    62    91    92    1
    63     4     3    1
    64    77    76    1
    65    29    27    1
    66    30    27    1
    67    63    76    1
    68    63    64    1
    69    28    27    1
    70    76    75   am
    71    27    26    1
    72    16     3    1
    73    16    17    1
    74     3     2    2
    75    40    39    1
    76    66    65    1
    77    64    65   ar
    78    64    73   ar
    79    58    57    1
    80    22    21    1
    81    75    56    2
    82    75    73    1
    83    35    34    1
    84    46    44    1
    85     2    18    1
    86     2     1    1
    87    65    67   ar
    88    26    18    1
    89    26    31    1
    90    26    24    1
    91    59    57    1
    92    18    19    2
    93    33    31    1
    94    73    71   ar
    95    57    74    1
    96    57    60    1
    97    19    21    1
    98    19    20    1
    99    74    53    1
   100    21    24    1
   101    21    23    1
   102    39    24    1
   103    39    37    1
   104    39    41    1
   105    53    51   ar
   106    53    54   ar
   107    34    31    1
   108    34    37    1
   109    34    36    1
   110    52    51    1
   111    55    54    1
   112    51    49   ar
   113    54    47   ar
   114    31    32    1
   115    24    25    1
   116    49    50    1
   117    49    48   ar
   118    47    44    1
   119    47    48   ar
   120    42    41    1
   121    44    41    1
   122    44    45    1
   123    48    37    1
   124    37    38    1
   125    41    43    1
   126    67    68    1
   127    67    69   ar
   128    71    69   ar
   129    71    72    1
   130    69    70    1
