@<TRIPOS>MOLECULE
N,N'-(n-butyl)-1,8-di(pyrid-4-ylium)naphtalene bis(hexafluorophosphate)
 68 69 0 0 0
SMALL
GASTEIGER

@<TRIPOS>ATOM
      1 P           9.9719   11.4575   -0.2520 P.3     1  LIG1        0.6235
      2 F          10.6462   12.0609   -1.5712 F       1  LIG1       -0.1039
      3 N           8.2942   12.2329    3.5757 N.pl3   2  LIG2       -0.3131
      4 C           8.2383   11.2418    4.4852 C.2     2  LIG2       -0.0066
      5 H           8.9993   11.0428    5.0168 H       2  LIG2        0.0780
      6 P           4.4354   15.0436    9.0050 P.3     3  LIG3        0.6235
      7 F           9.2842   10.8794    1.0699 F       1  LIG1       -0.1039
      8 F          11.2214   11.9513    0.6159 F       1  LIG1       -0.1039
      9 C           7.0807   10.5156    4.6465 C.2     2  LIG2       -0.0544
     10 H           7.0532    9.8034    5.2747 H       2  LIG2        0.0597
     11 C           5.9455   10.8199    3.8909 C.3     2  LIG2        0.0518
     12 F           8.6956   11.0028   -1.1193 F       1  LIG1       -0.1039
     13 F           9.2548   12.8790    0.0077 F       1  LIG1       -0.1039
     14 C           6.0740   11.7810    2.8888 C.2     2  LIG2       -0.0544
     15 H           5.3448   11.9619    2.3084 H       2  LIG2        0.0597
     16 F          10.6620   10.0526   -0.5120 F       1  LIG1       -0.1039
     17 C           7.2561   12.4651    2.7409 C.2     2  LIG2       -0.0066
     18 H           7.3447   13.1066    2.0460 H       2  LIG2        0.0780
     19 C           4.6571   10.1193    4.1412 C.ar    2  LIG2       -0.0241
     20 F           5.5686   15.7446    8.1184 F       3  LIG3       -0.1039
     21 C           4.6881    8.7484    4.0490 C.ar    2  LIG2       -0.0568
     22 H           5.5257    8.3063    3.9683 H       2  LIG2        0.0621
     23 F           3.3050   14.3198    9.8870 F       3  LIG3       -0.1039
     24 F           3.6078   14.7049    7.6759 F       3  LIG3       -0.1039
     25 C           3.5042    7.9826    4.0719 C.ar    2  LIG2       -0.0609
     26 H           3.5438    7.0346    4.0096 H       2  LIG2        0.0618
     27 C           2.3049    8.6121    4.1842 C.ar    2  LIG2       -0.0540
     28 H           1.5040    8.1035    4.1368 H       2  LIG2        0.0624
     29 F           5.2784   15.3532   10.3370 F       3  LIG3       -0.1039
     30 C           2.2286   10.0244    4.3719 C.ar    2  LIG2       -0.0173
     31 F           5.1946   13.6310    8.8708 F       3  LIG3       -0.1039
     32 C           0.9621   10.6306    4.5579 C.ar    2  LIG2       -0.0540
     33 H           0.1763   10.0953    4.5448 H       2  LIG2        0.0624
     34 F           3.6661   16.4308    9.1489 F       3  LIG3       -0.1039
     35 C           0.8603   11.9767    4.7580 C.ar    2  LIG2       -0.0609
     36 H           0.0058   12.3808    4.8615 H       2  LIG2        0.0618
     37 C           2.0175   12.7603    4.8080 C.ar    2  LIG2       -0.0568
     38 H           1.9365   13.6960    4.9492 H       2  LIG2        0.0621
     39 C           3.2736   12.2113    4.6588 C.ar    2  LIG2       -0.0241
     40 C           3.4207   10.8063    4.3816 C.ar    2  LIG2       -0.0092
     41 C           4.4121   13.1253    4.9326 C.3     2  LIG2        0.0518
     42 C           4.5331   14.3431    4.2640 C.2     2  LIG2       -0.0544
     43 H           3.8703   14.6113    3.6402 H       2  LIG2        0.0597
     44 C           5.6221   15.1575    4.5123 C.2     2  LIG2       -0.0066
     45 H           5.7158   15.9777    4.0420 H       2  LIG2        0.0780
     46 N           6.5518   14.7946    5.4198 N.pl3   2  LIG2       -0.3131
     47 C           6.4031   13.6641    6.1465 C.2     2  LIG2       -0.0066
     48 H           7.0347   13.4553    6.8250 H       2  LIG2        0.0780
     49 C           5.3572   12.8212    5.9151 C.2     2  LIG2       -0.0544
     50 H           5.2707   12.0245    6.4241 H       2  LIG2        0.0597
     51 C           7.7628   15.6301    5.6450 C.3     2  LIG2        0.0162
     52 H           7.7989   15.9076    6.5952 H       2  LIG2        0.0467
     53 H           7.7075   16.4477    5.0887 H       2  LIG2        0.0467
     54 C           9.0352   14.8597    5.2914 C.3     2  LIG2       -0.0354
     55 H           9.0357   14.0068    5.7933 H       2  LIG2        0.0281
     56 H           9.8163   15.3864    5.5967 H       2  LIG2        0.0281
     57 C           9.2109   14.5467    3.7937 C.3     2  LIG2       -0.0354
     58 H           8.3842   14.8141    3.3191 H       2  LIG2        0.0281
     59 H           9.9492   15.1040    3.4419 H       2  LIG2        0.0281
     60 C           9.5077   13.0865    3.4568 C.3     2  LIG2        0.0162
     61 H           9.8576   13.0289    2.5330 H       2  LIG2        0.0467
     62 H          10.2073   12.7465    4.0701 H       2  LIG2        0.0467
     63 C          13.0158    9.8697    2.1224 C.3     1  LIG1        0.0232
     64 H          12.1952    9.3391    2.1882 H       1  LIG1        0.0382
     65 H          13.2994    9.9171    1.1853 H       1  LIG1        0.0382
     66 H          12.8484   10.7737    2.4593 H       1  LIG1        0.0382
     67 C          14.0640    9.2425    2.9137 C.1     1  LIG1        0.0591
     68 N          14.8777    8.7547    3.5288 N.1     1  LIG1       -0.1969
@<TRIPOS>BOND
     1     2     1    1
     2    12     1    1
     3    16     1    1
     4     1    13    1
     5     1     8    1
     6     1     7    1
     7    65    63    1
     8    18    17    1
     9    63    64    1
    10    63    66    1
    11    63    67    1
    12    15    14    1
    13    61    60    1
    14    17    14    2
    15    17     3    1
    16    14    11    1
    17    67    68    3
    18    58    57    1
    19    59    57    1
    20    60     3    1
    21    60    57    1
    22    60    62    1
    23     3     4    1
    24    43    42    1
    25    57    54    1
    26    11    19    1
    27    11     9    1
    28    22    21    1
    29    26    25    1
    30    45    44    1
    31    21    25   ar
    32    21    19   ar
    33    25    27   ar
    34    28    27    1
    35    19    40   ar
    36    27    30   ar
    37    42    44    2
    38    42    41    1
    39    30    40   ar
    40    30    32   ar
    41    40    39   ar
    42     4     9    2
    43     4     5    1
    44    44    46    1
    45    33    32    1
    46    32    35   ar
    47     9    10    1
    48    39    37   ar
    49    39    41    1
    50    35    37   ar
    51    35    36    1
    52    37    38    1
    53    41    49    1
    54    53    51    1
    55    54    56    1
    56    54    51    1
    57    54    55    1
    58    46    51    1
    59    46    47    1
    60    51    52    1
    61    49    47    2
    62    49    50    1
    63    47    48    1
    64    24     6    1
    65    20     6    1
    66    31     6    1
    67     6    34    1
    68     6    23    1
    69     6    29    1
