@<TRIPOS>MOLECULE
4300244.cif
 40 41 0 0 0
SMALL
GASTEIGER

@<TRIPOS>ATOM
      1 N           2.7539    2.1778    0.7961 N.2     1  LIG1       -0.1908
      2 C           4.0141    2.3085    1.0170 C.2     1  LIG1        0.0424
      3 O           2.7767    1.0294   -2.9435 O.2     1  LIG1       -0.1261
      4 N           2.3785    1.8003   -0.4823 N.pl3   1  LIG1       -0.2356
      5 H           2.9592    1.6435   -1.0888 H       1  LIG1        0.1744
      6 C           5.1191    2.1015   -0.0021 C.3     1  LIG1       -0.0036
      7 H           4.7777    1.4888   -0.6854 H       1  LIG1        0.0359
      8 O           1.1147    0.6258   -4.2319 O.2     1  LIG1       -0.1261
      9 C           6.3603    1.4461    0.6268 C.3     1  LIG1       -0.0453
     10 H           6.1775    0.5054    0.7789 H       1  LIG1        0.0271
     11 H           7.0990    1.5053    0.0000 H       1  LIG1        0.0271
     12 N           1.5614    0.9393   -3.1335 N.pl3   1  LIG1        0.0584
     13 O          -3.3674    0.7138   -2.7919 O.2     1  LIG1       -0.1261
     14 C           6.7711    2.0870    1.9361 C.3     1  LIG1       -0.0519
     15 H           7.0279    3.0092    1.7812 H       1  LIG1        0.0266
     16 H           7.5362    1.6174    2.3032 H       1  LIG1        0.0266
     17 O          -3.8300    0.9840   -0.6925 O.2     1  LIG1       -0.1261
     18 N          -3.0334    0.9400   -1.6300 N.pl3   1  LIG1        0.0565
     19 C           5.6203    2.0355    2.9216 C.3     1  LIG1       -0.0453
     20 H           5.9029    2.4233    3.7647 H       1  LIG1        0.0271
     21 H           5.3795    1.1106    3.0835 H       1  LIG1        0.0271
     22 C           4.3967    2.7940    2.3995 C.3     1  LIG1       -0.0036
     23 H           4.6652    3.7312    2.3046 H       1  LIG1        0.0359
     24 C           5.4409    3.4239   -0.6924 C.3     1  LIG1       -0.0572
     25 H           4.6355    3.8034   -1.0483 H       1  LIG1        0.0236
     26 H           6.0659    3.2691   -1.4057 H       1  LIG1        0.0236
     27 H           5.8272    4.0311   -0.0558 H       1  LIG1        0.0236
     28 C           3.2443    2.7665    3.3970 C.3     1  LIG1       -0.0572
     29 H           2.5176    3.2946    3.0598 H       1  LIG1        0.0236
     30 H           3.5387    3.1261    4.2365 H       1  LIG1        0.0236
     31 H           2.9510    1.8608    3.5232 H       1  LIG1        0.0236
     32 C           1.0834    1.6029   -0.7677 C.ar    1  LIG1        0.0785
     33 C           0.6402    1.1855   -2.0574 C.ar    1  LIG1        0.1507
     34 C          -0.7086    0.9834   -2.3288 C.ar    1  LIG1        0.0006
     35 H          -0.9817    0.7186   -3.1770 H       1  LIG1        0.0664
     36 C          -1.6261    1.1759   -1.3413 C.ar    1  LIG1        0.1285
     37 C          -1.2394    1.5871   -0.0711 C.ar    1  LIG1       -0.0296
     38 H          -1.8808    1.7150    0.5905 H       1  LIG1        0.0641
     39 C           0.0788    1.8024    0.2087 C.ar    1  LIG1       -0.0348
     40 H           0.3218    2.0864    1.0595 H       1  LIG1        0.0638
@<TRIPOS>BOND
     1     8    12    2
     2    35    34    1
     3    12     3    2
     4    12    33    1
     5    13    18    2
     6    34    33   ar
     7    34    36   ar
     8    33    32   ar
     9    18    36    1
    10    18    17    2
    11    26    24    1
    12    36    37   ar
    13     5     4    1
    14    25    24    1
    15    32     4    1
    16    32    39   ar
    17    24    27    1
    18    24     6    1
    19     7     6    1
    20     4     1    1
    21    37    39   ar
    22    37    38    1
    23     6     9    1
    24     6     2    1
    25    11     9    1
    26    39    40    1
    27     9    10    1
    28     9    14    1
    29     1     2    2
    30     2    22    1
    31    15    14    1
    32    14    16    1
    33    14    19    1
    34    23    22    1
    35    22    19    1
    36    22    28    1
    37    19    21    1
    38    19    20    1
    39    29    28    1
    40    28    31    1
    41    28    30    1
