@<TRIPOS>MOLECULE
4303117.cif
 32 33 0 0 0
SMALL
GASTEIGER

@<TRIPOS>ATOM
      1 P           4.4142    4.2253    4.0717 P.3     1  LIG1        0.1170
      2 CL          3.0861    2.8454    3.3019 Cl      1  LIG1       -0.0723
      3 CL          5.9479    2.9811    4.6549 Cl      1  LIG1       -0.0723
      4 C           5.0860    5.0037    2.5670 C.ar    1  LIG1        0.0117
      5 C           5.0526    6.4160    2.6194 C.ar    1  LIG1       -0.0393
      6 C           6.0461    6.5083    0.4197 C.ar    1  LIG1        0.0258
      7 C           7.4517    8.6639   -2.7255 C.ar    1  LIG1        0.0253
      8 C           5.5178    7.1358    1.5340 C.ar    1  LIG1       -0.0427
      9 H           5.4748    8.0639    1.5533 H       1  LIG1        0.0633
     10 C           6.5463    7.2768   -0.6874 C.1     1  LIG1       -0.0610
     11 C           5.6124    4.3500    1.4363 C.ar    1  LIG1       -0.0393
     12 C           6.0882    5.1220    0.3883 C.ar    1  LIG1       -0.0427
     13 H           6.4461    4.6979   -0.3582 H       1  LIG1        0.0633
     14 C           7.5274   10.0478   -2.6881 C.ar    1  LIG1       -0.0463
     15 H           7.2658   10.5051   -1.9211 H       1  LIG1        0.0630
     16 C           6.9660    7.9156   -1.6039 C.1     1  LIG1       -0.0610
     17 C           4.5644    7.1907    3.8217 C.3     1  LIG1       -0.0390
     18 H           4.6280    8.1316    3.6432 H       1  LIG1        0.0278
     19 H           5.1037    6.9724    4.5839 H       1  LIG1        0.0278
     20 H           3.6496    6.9607    4.0002 H       1  LIG1        0.0278
     21 C           7.9870   10.7503   -3.7795 C.ar    1  LIG1       -0.0606
     22 H           8.0423   11.6782   -3.7445 H       1  LIG1        0.0618
     23 C           5.7067    2.8452    1.2819 C.3     1  LIG1       -0.0390
     24 H           6.0970    2.6345    0.4305 H       1  LIG1        0.0278
     25 H           4.8278    2.4626    1.3338 H       1  LIG1        0.0278
     26 H           6.2541    2.4844    1.9826 H       1  LIG1        0.0278
     27 C           8.2910    8.7233   -4.9662 C.ar    1  LIG1       -0.0606
     28 H           8.5471    8.2735   -5.7380 H       1  LIG1        0.0618
     29 C           8.3629   10.0880   -4.9131 C.ar    1  LIG1       -0.0617
     30 H           8.6680   10.5659   -5.6512 H       1  LIG1        0.0618
     31 C           7.8389    8.0158   -3.8748 C.ar    1  LIG1       -0.0463
     32 H           7.7953    7.0881   -3.9146 H       1  LIG1        0.0630
@<TRIPOS>BOND
     1    28    27    1
     2    30    29    1
     3    27    29   ar
     4    27    31   ar
     5    29    21   ar
     6    32    31    1
     7    31     7   ar
     8    21    22    1
     9    21    14   ar
    10     7    14   ar
    11     7    16    1
    12    14    15    1
    13    16    10    3
    14    10     6    1
    15    13    12    1
    16    12     6   ar
    17    12    11   ar
    18     6     8   ar
    19    24    23    1
    20    23    25    1
    21    23    11    1
    22    23    26    1
    23    11     4   ar
    24     8     9    1
    25     8     5   ar
    26     4     5   ar
    27     4     1    1
    28     5    17    1
    29     2     1    1
    30    18    17    1
    31    17    20    1
    32    17    19    1
    33     1     3    1
