@<TRIPOS>MOLECULE
1,3-diazido-2-(azidomethyl)propan-2-aminium 2,4,6-trinitrophenolate
 41 40 0 0 0
SMALL
GASTEIGER

@<TRIPOS>ATOM
      1 C           2.9425   -1.5304   12.9040 C.3     1  LIG1        0.0664
      2 N           3.1137   -0.4033   11.9273 N.4     1  LIG1        0.2274
      3 H           3.9479   -0.0497   12.0145 H       1  LIG1        0.2002
      4 H           2.4929    0.2408   12.0946 H       1  LIG1        0.2002
      5 H           3.0040   -0.7164   11.0800 H       1  LIG1        0.2002
      6 C           3.9190   -2.6452   12.5310 C.3     1  LIG1        0.1713
      7 H           4.8486   -2.3073   12.5591 H       1  LIG1        0.0641
      8 H           3.8398   -3.3951   13.1720 H       1  LIG1        0.0641
      9 N           3.5867   -3.1049   11.1681 N.2     1  LIG1        0.1268
     10 N           3.9492   -4.2513   10.8976 N.2     1  LIG1        0.2545
     11 N           4.2144   -5.2845   10.5297 N.2     1  LIG1        0.3543
     12 C           1.4778   -1.9711   12.7992 C.3     1  LIG1        0.1713
     13 H           0.8771   -1.2247   13.0485 H       1  LIG1        0.0641
     14 H           1.2681   -2.2458   11.8716 H       1  LIG1        0.0641
     15 N           1.2908   -3.1118   13.7265 N.2     1  LIG1        0.1268
     16 N           0.1243   -3.2749   14.0853 N.2     1  LIG1        0.2545
     17 N          -0.9042   -3.5239   14.4790 N.2     1  LIG1        0.3543
     18 C           3.2776   -1.0147   14.3014 C.3     1  LIG1        0.1713
     19 H           3.0978   -1.7104   14.9824 H       1  LIG1        0.0641
     20 H           4.2305   -0.7531   14.3576 H       1  LIG1        0.0641
     21 N           2.4050    0.1547   14.5102 N.2     1  LIG1        0.1268
     22 N           2.5911    0.8229   15.5304 N.2     1  LIG1        0.2545
     23 N           2.6318    1.5371   16.4062 N.2     1  LIG1        0.3543
     24 C           1.8061   -1.9085    8.8333 C.2     2  LIG2        0.2385
     25 C           0.7713   -2.8867    8.5572 C.2     2  LIG2        0.1738
     26 C           0.9116   -3.9220    7.6615 C.2     2  LIG2       -0.0109
     27 H           0.1996   -4.5358    7.5231 H       2  LIG2        0.0626
     28 C           2.1008   -4.0628    6.9615 C.3     2  LIG2        0.1987
     29 C           3.1584   -3.1815    7.1523 C.2     2  LIG2       -0.0109
     30 H           3.9685   -3.2839    6.6667 H       2  LIG2        0.0626
     31 C           3.0087   -2.1573    8.0592 C.2     2  LIG2        0.1738
     32 O           1.6830   -0.9387    9.6234 O.2     2  LIG2       -0.2831
     33 N          -0.5190   -2.8341    9.2567 N.pl3   2  LIG2        0.0601
     34 O          -0.6793   -2.0385   10.1777 O.2     2  LIG2       -0.1260
     35 O          -1.3961   -3.6128    8.8936 O.2     2  LIG2       -0.1260
     36 N           2.2326   -5.1543    6.0097 N.pl3   2  LIG2        0.0397
     37 O           1.2944   -5.9481    5.9098 O.2     2  LIG2       -0.1304
     38 O           3.2671   -5.2291    5.3464 O.2     2  LIG2       -0.1304
     39 N           4.1528   -1.2583    8.1880 N.pl3   2  LIG2        0.0601
     40 O           4.9881   -1.2594    7.2871 O.2     2  LIG2       -0.1260
     41 O           4.2614   -0.5336    9.1872 O.2     2  LIG2       -0.1260
@<TRIPOS>BOND
     1    38    36    2
     2    37    36    2
     3    36    28    1
     4    30    29    1
     5    28    29    1
     6    28    26    1
     7    29    31    2
     8    40    39    2
     9    27    26    1
    10    26    25    2
    11    31    39    1
    12    31    24    1
    13    39    41    2
    14    25    24    1
    15    25    33    1
    16    24    32    2
    17    35    33    2
    18    33    34    2
    19    11    10    2
    20    10     9    2
    21     5     2    1
    22     9     6    1
    23    14    12    1
    24     2     3    1
    25     2     4    1
    26     2     1    1
    27     6     7    1
    28     6     1    1
    29     6     8    1
    30    12     1    1
    31    12    13    1
    32    12    15    1
    33     1    18    1
    34    15    16    2
    35    16    17    2
    36    18    20    1
    37    18    21    1
    38    18    19    1
    39    21    22    2
    40    22    23    2
