@<TRIPOS>MOLECULE
?
 76 85 0 0 0
SMALL
GASTEIGER

@<TRIPOS>ATOM
      1 P           1.6273   12.8621    2.6894 P.3     1  LIG1        0.6499
      2 P           2.1664   10.0883    2.0024 P.3     1  LIG1        0.4921
      3 P           0.3829    9.1001    4.0265 P.3     1  LIG1        0.6499
      4 P          -0.4785   11.8979    4.4145 P.3     1  LIG1        0.6540
      5 N           2.4414   11.5373    2.4526 N.3     1  LIG1        0.2388
      6 N           1.5161    9.0292    2.9291 N.3     1  LIG1        0.2388
      7 N           0.0176   10.4545    4.6966 N.3     1  LIG1        0.2865
      8 N           0.2250   12.8263    3.3721 N.3     1  LIG1        0.2865
      9 CL          1.1484   10.1054    0.2602 Cl      1  LIG1        0.1629
     10 CL          3.9281    9.3124    1.4492 Cl      1  LIG1        0.1629
     11 O           1.3338   13.6487    1.3358 O.3     1  LIG1       -0.2634
     12 O           2.6799   13.7644    3.4381 O.3     1  LIG1       -0.2634
     13 O          -0.9602    8.4564    3.4728 O.3     1  LIG1       -0.2634
     14 O           0.8774    8.0696    5.1156 O.3     1  LIG1       -0.2634
     15 O          -2.0185   11.7834    4.0422 O.3     1  LIG1       -0.2633
     16 O          -0.4925   12.7033    5.7888 O.3     1  LIG1       -0.2633
     17 C           2.4106   14.0960    0.5456 C.ar    1  LIG1        0.1917
     18 C           2.5984   13.4931   -0.6846 C.ar    1  LIG1       -0.0140
     19 H           2.0473   12.7962   -0.9596 H       1  LIG1        0.0656
     20 C           3.6175   13.9417   -1.4930 C.ar    1  LIG1       -0.0581
     21 H           3.7705   13.5365   -2.3163 H       1  LIG1        0.0619
     22 C           4.4120   14.9920   -1.0854 C.ar    1  LIG1       -0.0610
     23 H           5.1045   15.2862   -1.6318 H       1  LIG1        0.0618
     24 C           4.1854   15.6118    0.1361 C.ar    1  LIG1       -0.0502
     25 H           4.7225   16.3256    0.3950 H       1  LIG1        0.0625
     26 C           3.1592   15.1765    0.9855 C.ar    1  LIG1        0.0328
     27 C           2.8798   15.8626    2.2644 C.ar    1  LIG1        0.0328
     28 C           2.9147   17.2637    2.3525 C.ar    1  LIG1       -0.0502
     29 H           3.0981   17.7666    1.5925 H       1  LIG1        0.0625
     30 C           2.6820   17.9052    3.5508 C.ar    1  LIG1       -0.0610
     31 H           2.7245   18.8337    3.5924 H       1  LIG1        0.0618
     32 C           2.3841   17.1805    4.6916 C.ar    1  LIG1       -0.0581
     33 H           2.2178   17.6219    5.4930 H       1  LIG1        0.0619
     34 C           2.3359   15.8047    4.6358 C.ar    1  LIG1       -0.0140
     35 H           2.1339   15.3103    5.3979 H       1  LIG1        0.0656
     36 C           2.5887   15.1680    3.4358 C.ar    1  LIG1        0.1917
     37 C          -0.9661    7.0890    3.1062 C.ar    1  LIG1        0.1917
     38 C          -1.0503    6.7948    1.7592 C.ar    1  LIG1       -0.0140
     39 H          -1.0598    7.4725    1.1209 H       1  LIG1        0.0656
     40 C          -1.1193    5.4551    1.3815 C.ar    1  LIG1       -0.0581
     41 H          -1.1744    5.2296    0.4819 H       1  LIG1        0.0619
     42 C          -1.1070    4.4664    2.3370 C.ar    1  LIG1       -0.0610
     43 H          -1.1457    3.5741    2.0785 H       1  LIG1        0.0618
     44 C          -1.0379    4.7883    3.6792 C.ar    1  LIG1       -0.0502
     45 H          -1.0477    4.1082    4.3121 H       1  LIG1        0.0625
     46 C          -0.9520    6.1171    4.0999 C.ar    1  LIG1        0.0328
     47 C          -0.8662    6.4548    5.5422 C.ar    1  LIG1        0.0328
     48 C          -1.6146    5.7638    6.4940 C.ar    1  LIG1       -0.0502
     49 H          -2.1901    5.0861    6.2210 H       1  LIG1        0.0625
     50 C          -1.5147    6.0713    7.8404 C.ar    1  LIG1       -0.0610
     51 H          -2.0176    5.5962    8.4629 H       1  LIG1        0.0618
     52 C          -0.6724    7.0806    8.2664 C.ar    1  LIG1       -0.0581
     53 H          -0.6149    7.2880    9.1702 H       1  LIG1        0.0619
     54 C           0.0854    7.7812    7.3483 C.ar    1  LIG1       -0.0140
     55 H           0.6533    8.4624    7.6253 H       1  LIG1        0.0656
     56 C          -0.0194    7.4471    6.0076 C.ar    1  LIG1        0.1917
     57 C          -2.8707   12.8938    4.2112 C.ar    1  LIG1        0.1917
     58 C          -3.3538   13.5438    3.1109 C.ar    1  LIG1       -0.0140
     59 H          -3.0591   13.3038    2.2626 H       1  LIG1        0.0656
     60 C          -4.2806   14.5518    3.2573 C.ar    1  LIG1       -0.0581
     61 H          -4.6083   14.9968    2.5087 H       1  LIG1        0.0619
     62 C          -4.7241   14.9027    4.5293 C.ar    1  LIG1       -0.0610
     63 H          -5.3584   15.5744    4.6347 H       1  LIG1        0.0618
     64 C          -4.2169   14.2492    5.6305 C.ar    1  LIG1       -0.0502
     65 H          -4.5086   14.5000    6.4774 H       1  LIG1        0.0625
     66 C          -3.2777   13.2194    5.5153 C.ar    1  LIG1        0.0328
     67 C          -2.7173   12.5188    6.6932 C.ar    1  LIG1        0.0328
     68 C          -3.5357   12.1064    7.7587 C.ar    1  LIG1       -0.0502
     69 H          -4.4498   12.2704    7.7266 H       1  LIG1        0.0625
     70 C          -2.9983   11.4637    8.8430 C.ar    1  LIG1       -0.0610
     71 H          -3.5568   11.1960    9.5362 H       1  LIG1        0.0618
     72 C          -1.6436   11.2033    8.9266 C.ar    1  LIG1       -0.0581
     73 H          -1.2928   10.7680    9.6707 H       1  LIG1        0.0619
     74 C          -0.8121   11.6012    7.8850 C.ar    1  LIG1       -0.0140
     75 H           0.1007   11.4300    7.9169 H       1  LIG1        0.0656
     76 C          -1.3640   12.2547    6.8044 C.ar    1  LIG1        0.1917
@<TRIPOS>BOND
     1    21    20    1
     2    23    22    1
     3    20    22   ar
     4    20    18   ar
     5    22    24   ar
     6    19    18    1
     7    18    17   ar
     8    24    25    1
     9    24    26   ar
    10     9     2    1
    11    41    40    1
    12    17    26   ar
    13    17    11    1
    14    26    27    1
    15    39    38    1
    16    11     1    1
    17    40    38   ar
    18    40    42   ar
    19    10     2    1
    20    29    28    1
    21    38    37   ar
    22     2     5    1
    23     2     6    1
    24    43    42    1
    25    59    58    1
    26    27    28   ar
    27    27    36   ar
    28    42    44   ar
    29    28    30   ar
    30     5     1    1
    31    61    60    1
    32     1     8    1
    33     1    12    1
    34     6     3    1
    35    37    13    1
    36    37    46   ar
    37    58    60   ar
    38    58    57   ar
    39    60    62   ar
    40     8     4    1
    41    36    12    1
    42    36    34   ar
    43    13     3    1
    44    30    31    1
    45    30    32   ar
    46    44    46   ar
    47    44    45    1
    48     3     7    1
    49     3    14    1
    50    15    57    1
    51    15     4    1
    52    46    47    1
    53    57    66   ar
    54     4     7    1
    55     4    16    1
    56    62    63    1
    57    62    64   ar
    58    34    32   ar
    59    34    35    1
    60    32    33    1
    61    14    56    1
    62    66    64   ar
    63    66    67    1
    64    47    56   ar
    65    47    48   ar
    66    64    65    1
    67    16    76    1
    68    56    54   ar
    69    49    48    1
    70    48    50   ar
    71    67    76   ar
    72    67    68   ar
    73    76    74   ar
    74    54    55    1
    75    54    52   ar
    76    69    68    1
    77    68    70   ar
    78    50    52   ar
    79    50    51    1
    80    74    75    1
    81    74    72   ar
    82    52    53    1
    83    70    72   ar
    84    70    71    1
    85    72    73    1
