@<TRIPOS>MOLECULE
?
 81 86 0 0 0
SMALL
GASTEIGER

@<TRIPOS>ATOM
      1 P           9.1618    0.1797    6.6163 P.3     1  LIG1        0.1646
      2 H           9.1268   -0.8341    5.6820 H       1  LIG1        0.1334
      3 O           7.7376    0.5648    6.0117 O.3     1  LIG1       -0.3217
      4 O           9.2650   -1.0432    7.6765 O.3     1  LIG1       -0.3217
      5 O          10.5035    0.6169    5.8305 O.3     1  LIG1       -0.3217
      6 C           9.2232    1.6039    7.9241 C.3     1  LIG1        0.1222
      7 C           6.7303    1.5360    6.5104 C.3     1  LIG1        0.0806
      8 H           5.8341    1.2702    6.1831 H       1  LIG1        0.0615
      9 H           6.9350    2.4321    6.1443 H       1  LIG1        0.0615
     10 C           6.7059    1.6110    8.0179 C.ar    1  LIG1       -0.0166
     11 C           7.9133    1.6277    8.7081 C.ar    1  LIG1       -0.0173
     12 C           7.8787    1.7266   10.1045 C.ar    1  LIG1       -0.0529
     13 H           8.7013    1.7481   10.5779 H       1  LIG1        0.0624
     14 C           6.6911    1.7957   10.8284 C.ar    1  LIG1       -0.0417
     15 C           5.5036    1.7648   10.1038 C.ar    1  LIG1       -0.0577
     16 H           4.6721    1.8065   10.5610 H       1  LIG1        0.0621
     17 C           5.5239    1.6742    8.7170 C.ar    1  LIG1       -0.0558
     18 H           4.7010    1.6551    8.2413 H       1  LIG1        0.0621
     19 C           6.7425    1.8780   12.3498 C.3     1  LIG1       -0.0127
     20 C           7.4177    0.6113   12.8875 C.3     1  LIG1       -0.0560
     21 H           6.9248   -0.1775   12.5787 H       1  LIG1        0.0238
     22 H           7.4203    0.6327   13.8676 H       1  LIG1        0.0238
     23 H           8.3403    0.5672   12.5602 H       1  LIG1        0.0238
     24 C           7.5629    3.1184   12.7559 C.3     1  LIG1       -0.0560
     25 H           8.4699    3.0445   12.3932 H       1  LIG1        0.0238
     26 H           7.6055    3.1744   13.7344 H       1  LIG1        0.0238
     27 H           7.1330    3.9239   12.4016 H       1  LIG1        0.0238
     28 C           5.3589    1.9852   12.9718 C.3     1  LIG1       -0.0560
     29 H           4.9225    2.8038   12.6563 H       1  LIG1        0.0238
     30 H           5.4404    2.0114   13.9469 H       1  LIG1        0.0238
     31 H           4.8228    1.2071   12.7086 H       1  LIG1        0.0238
     32 C           9.5739   -1.0021    9.0804 C.3     1  LIG1        0.0806
     33 H           9.9429   -1.8792    9.3548 H       1  LIG1        0.0615
     34 H           8.7369   -0.8532    9.5909 H       1  LIG1        0.0615
     35 C          10.5516    0.0691    9.4263 C.ar    1  LIG1       -0.0166
     36 C          10.3931    1.3477    8.8804 C.ar    1  LIG1       -0.0173
     37 C          11.2521    2.3546    9.2847 C.ar    1  LIG1       -0.0529
     38 H          11.1306    3.2269    8.9279 H       1  LIG1        0.0624
     39 C          12.2890    2.1449   10.1941 C.ar    1  LIG1       -0.0417
     40 C          12.4442    0.8615   10.6995 C.ar    1  LIG1       -0.0577
     41 H          13.1505    0.6780   11.3084 H       1  LIG1        0.0621
     42 C          11.5807   -0.1561   10.3262 C.ar    1  LIG1       -0.0558
     43 H          11.6982   -1.0248   10.6943 H       1  LIG1        0.0621
     44 C          13.2044    3.3222   10.5553 C.3     1  LIG1       -0.0127
     45 C          13.9708    3.7500    9.3025 C.3     1  LIG1       -0.0560
     46 H          14.5376    3.0112    8.9988 H       1  LIG1        0.0238
     47 H          14.5298    4.5269    9.5100 H       1  LIG1        0.0238
     48 H          13.3349    3.9847    8.5939 H       1  LIG1        0.0238
     49 C          12.3642    4.4923   11.0722 C.3     1  LIG1       -0.0560
     50 H          12.9552    5.2299   11.3286 H       1  LIG1        0.0238
     51 H          11.8457    4.2028   11.8516 H       1  LIG1        0.0238
     52 H          11.7552    4.7926   10.3653 H       1  LIG1        0.0238
     53 C          14.2083    2.9421   11.6407 C.3     1  LIG1       -0.0560
     54 H          14.8066    2.2438   11.3016 H       1  LIG1        0.0238
     55 H          13.7277    2.6072   12.4269 H       1  LIG1        0.0238
     56 H          14.7340    3.7297   11.8904 H       1  LIG1        0.0238
     57 C          11.3339    1.7957    6.0508 C.3     1  LIG1        0.0806
     58 H          11.9145    1.9399    5.2603 H       1  LIG1        0.0615
     59 H          11.9193    1.6420    6.8343 H       1  LIG1        0.0615
     60 C          10.5051    3.0183    6.2855 C.ar    1  LIG1       -0.0166
     61 C           9.4371    2.9254    7.1901 C.ar    1  LIG1       -0.0173
     62 C           8.6718    4.0586    7.4195 C.ar    1  LIG1       -0.0529
     63 H           7.9534    4.0050    8.0388 H       1  LIG1        0.0624
     64 C           8.9116    5.2752    6.7786 C.ar    1  LIG1       -0.0417
     65 C           9.9767    5.3205    5.8737 C.ar    1  LIG1       -0.0577
     66 H          10.1651    6.1284    5.4104 H       1  LIG1        0.0621
     67 C          10.7521    4.2135    5.6461 C.ar    1  LIG1       -0.0558
     68 H          11.4772    4.2719    5.0342 H       1  LIG1        0.0621
     69 C           8.0177    6.4752    7.0774 C.3     1  LIG1       -0.0127
     70 C           6.5737    6.1355    6.6943 C.3     1  LIG1       -0.0560
     71 H           6.5280    5.9449    5.7343 H       1  LIG1        0.0238
     72 H           5.9934    6.8970    6.9051 H       1  LIG1        0.0238
     73 H           6.2785    5.3491    7.1987 H       1  LIG1        0.0238
     74 C           8.0945    6.8100    8.5635 C.3     1  LIG1       -0.0560
     75 H           7.8049    6.0355    9.0882 H       1  LIG1        0.0238
     76 H           7.5112    7.5726    8.7558 H       1  LIG1        0.0238
     77 H           9.0182    7.0376    8.7980 H       1  LIG1        0.0238
     78 C           8.4525    7.7168    6.2978 C.3     1  LIG1       -0.0560
     79 H           9.3853    7.9277    6.5137 H       1  LIG1        0.0238
     80 H           7.8806    8.4735    6.5424 H       1  LIG1        0.0238
     81 H           8.3722    7.5428    5.3362 H       1  LIG1        0.0238
@<TRIPOS>BOND
     1    68    67    1
     2    58    57    1
     3    81    78    1
     4    66    65    1
     5    67    65   ar
     6    67    60   ar
     7     2     1    1
     8    71    70    1
     9     5    57    1
    10     5     1    1
    11    65    64   ar
    12     3     7    1
    13     3     1    1
    14    57    60    1
    15    57    59    1
    16     9     7    1
    17     8     7    1
    18    60    61   ar
    19    78    79    1
    20    78    80    1
    21    78    69    1
    22     7    10    1
    23     1     4    1
    24     1     6    1
    25    70    72    1
    26    70    69    1
    27    70    73    1
    28    64    69    1
    29    64    62   ar
    30    69    74    1
    31    61    62   ar
    32    61     6    1
    33    62    63    1
    34     4    32    1
    35     6    11    1
    36     6    36    1
    37    10    11   ar
    38    10    17   ar
    39    18    17    1
    40    74    76    1
    41    74    77    1
    42    74    75    1
    43    48    45    1
    44    11    12   ar
    45    17    15   ar
    46    36    37   ar
    47    36    35   ar
    48    38    37    1
    49    46    45    1
    50    32    33    1
    51    32    35    1
    52    32    34    1
    53    37    39   ar
    54    45    47    1
    55    45    44    1
    56    35    42   ar
    57    15    16    1
    58    15    14   ar
    59    12    13    1
    60    12    14   ar
    61    39    44    1
    62    39    40   ar
    63    42    43    1
    64    42    40   ar
    65    52    49    1
    66    44    49    1
    67    44    53    1
    68    40    41    1
    69    14    19    1
    70    49    50    1
    71    49    51    1
    72    54    53    1
    73    53    56    1
    74    53    55    1
    75    19    24    1
    76    19    20    1
    77    19    28    1
    78    25    24    1
    79    27    24    1
    80    23    20    1
    81    21    20    1
    82    29    28    1
    83    31    28    1
    84    24    26    1
    85    20    22    1
    86    28    30    1
