@<TRIPOS>MOLECULE
Compound 1b
 100 104 0 0 0
SMALL
GASTEIGER

@<TRIPOS>ATOM
      1 C          10.8415    9.5070    5.5491 C.ar    1  LIG1        0.0000
      2 C           9.6384    8.8729    5.8415 C.ar    1  LIG1        0.0000
      3 C           9.5201    7.7773    6.6754 C.ar    1  LIG1        0.0000
      4 C          10.6327    7.2737    7.2915 C.ar    1  LIG1        0.0000
      5 C          11.8431    7.9049    7.1032 C.ar    1  LIG1        0.0000
      6 C          11.9165    9.0019    6.2713 C.ar    1  LIG1        0.0000
      7 C          11.1775   12.1018    5.4944 C.ar    1  LIG1        0.0000
      8 C          10.0669   12.5621    6.1952 C.ar    1  LIG1        0.0000
      9 C          10.0823   13.6174    7.0912 C.ar    1  LIG1        0.0000
     10 C          11.2600   14.2877    7.3261 C.ar    1  LIG1        0.0000
     11 C          12.3994   13.8712    6.6780 C.ar    1  LIG1        0.0000
     12 C          12.3416   12.8001    5.8035 C.ar    1  LIG1        0.0000
     13 C          12.3539   10.6028    3.5034 C.ar    1  LIG1        0.0000
     14 C          12.7529   11.7026    2.7460 C.ar    1  LIG1        0.0000
     15 C          13.7881   11.7039    1.8390 C.ar    1  LIG1        0.0000
     16 C          14.5114   10.5451    1.6485 C.ar    1  LIG1        0.0000
     17 C          14.1534    9.4180    2.3410 C.ar    1  LIG1        0.0000
     18 C          13.0975    9.4603    3.2312 C.ar    1  LIG1        0.0000
     19 C           9.3802   10.1673    2.3122 C.3     1  LIG1        0.0000
     20 C           9.5582    8.6741    2.5715 C.3     1  LIG1        0.0000
     21 H           8.8960    8.3759    3.2286 H       1  LIG1        0.0000
     22 H          10.4593    8.5070    2.9172 H       1  LIG1        0.0000
     23 H           9.4325    8.1805    1.7338 H       1  LIG1        0.0000
     24 C          10.2185   10.5744    1.1011 C.3     1  LIG1        0.0000
     25 H          11.1349   10.2455    1.2120 H       1  LIG1        0.0000
     26 H          10.2287   11.5515    1.0252 H       1  LIG1        0.0000
     27 H           9.8289   10.1871    0.2895 H       1  LIG1        0.0000
     28 C           7.9169   10.5185    2.0648 C.3     1  LIG1        0.0000
     29 H           7.5945   10.0373    1.2743 H       1  LIG1        0.0000
     30 H           7.8332   11.4831    1.9173 H       1  LIG1        0.0000
     31 H           7.3832   10.2601    2.8448 H       1  LIG1        0.0000
     32 B          11.0796   10.7594    4.5243 B       1  LIG1        0.0000
     33 N           9.7829   11.0118    3.5463 N.4     1  LIG1        1.0000
     34 H           9.0485   11.0077    4.1006 H       1  LIG1        0.0000
     35 H           9.8670   11.8752    3.2404 H       1  LIG1        0.0000
     36 F           8.4677    9.3060    5.2872 F       1  LIG1        0.0000
     37 F           8.3238    7.1965    6.8646 F       1  LIG1        0.0000
     38 F          10.5507    6.1817    8.0605 F       1  LIG1        0.0000
     39 F          12.9467    7.4229    7.7004 F       1  LIG1        0.0000
     40 F          13.1282    9.5865    6.1385 F       1  LIG1        0.0000
     41 F           8.8679   11.9441    6.0324 F       1  LIG1        0.0000
     42 F           8.9542   13.9802    7.7359 F       1  LIG1        0.0000
     43 F          11.2946   15.3203    8.1753 F       1  LIG1        0.0000
     44 F          13.5607   14.5063    6.8870 F       1  LIG1        0.0000
     45 F          13.5268   12.4534    5.2547 F       1  LIG1        0.0000
     46 F          12.0629   12.8648    2.8600 F       1  LIG1        0.0000
     47 F          14.0914   12.7982    1.1287 F       1  LIG1        0.0000
     48 F          15.5361   10.5176    0.7890 F       1  LIG1        0.0000
     49 F          14.8398    8.2819    2.1616 F       1  LIG1        0.0000
     50 F          12.8041    8.2674    3.8183 F       1  LIG1        0.0000
     51 C           3.3438    2.7752    4.8667 C.ar    2  LIG2        0.0000
     52 C           3.1478    1.5148    4.3141 C.ar    2  LIG2        0.0000
     53 C           3.0063    0.3536    5.0458 C.ar    2  LIG2        0.0000
     54 C           3.0431    0.4114    6.4172 C.ar    2  LIG2        0.0000
     55 C           3.1953    1.6294    7.0264 C.ar    2  LIG2        0.0000
     56 C           3.3268    2.7715    6.2543 C.ar    2  LIG2        0.0000
     57 C           1.7928    4.2780    3.4416 C.ar    2  LIG2        0.0000
     58 C           1.2084    3.8965    2.2335 C.ar    2  LIG2        0.0000
     59 C          -0.1513    3.9326    1.9816 C.ar    2  LIG2        0.0000
     60 C          -1.0140    4.3327    2.9766 C.ar    2  LIG2        0.0000
     61 C          -0.5018    4.7238    4.1897 C.ar    2  LIG2        0.0000
     62 C           0.8626    4.6967    4.3900 C.ar    2  LIG2        0.0000
     63 C           4.3994    3.9404    2.5885 C.ar    2  LIG2        0.0000
     64 C           5.4666    3.0620    2.4750 C.ar    2  LIG2        0.0000
     65 C           6.3382    3.0426    1.4032 C.ar    2  LIG2        0.0000
     66 C           6.1848    3.9387    0.3764 C.ar    2  LIG2        0.0000
     67 C           5.1464    4.8439    0.4340 C.ar    2  LIG2        0.0000
     68 C           4.2996    4.8246    1.5180 C.ar    2  LIG2        0.0000
     69 C           5.2438    5.9679    4.9931 C.3     2  LIG2        0.0000
     70 C           6.0411    6.3748    3.7604 C.3     2  LIG2        0.0000
     71 H           6.8560    6.8428    4.0383 H       2  LIG2        0.0000
     72 H           5.4984    6.9687    3.2017 H       2  LIG2        0.0000
     73 H           6.2833    5.5748    3.2488 H       2  LIG2        0.0000
     74 C           5.9912    4.8887    5.7573 C.3     2  LIG2        0.0000
     75 H           5.9964    4.0602    5.2335 H       2  LIG2        0.0000
     76 H           5.5465    4.7293    6.6155 H       2  LIG2        0.0000
     77 H           6.9135    5.1799    5.9169 H       2  LIG2        0.0000
     78 C           4.9954    7.2018    5.8610 C.3     2  LIG2        0.0000
     79 H           5.8546    7.5722    6.1543 H       2  LIG2        0.0000
     80 H           4.4636    6.9493    6.6441 H       2  LIG2        0.0000
     81 H           4.5105    7.8758    5.3395 H       2  LIG2        0.0000
     82 B           3.3883    4.0798    3.8644 B       2  LIG2        0.0000
     83 N           3.8222    5.4811    4.6098 N.4     2  LIG2        1.0000
     84 H           3.4704    6.1515    4.0871 H       2  LIG2        0.0000
     85 H           3.3425    5.4951    5.3951 H       2  LIG2        0.0000
     86 F           3.0646    1.3830    2.9642 F       2  LIG2        0.0000
     87 F           2.8189   -0.8312    4.4273 F       2  LIG2        0.0000
     88 F           2.9249   -0.7117    7.1439 F       2  LIG2        0.0000
     89 F           3.2113    1.7160    8.3682 F       2  LIG2        0.0000
     90 F           3.4187    3.9336    6.9471 F       2  LIG2        0.0000
     91 F           1.9667    3.4566    1.2034 F       2  LIG2        0.0000
     92 F          -0.6396    3.5647    0.7920 F       2  LIG2        0.0000
     93 F          -2.3433    4.3325    2.7817 F       2  LIG2        0.0000
     94 F          -1.3341    5.1183    5.1759 F       2  LIG2        0.0000
     95 F           1.2869    5.0866    5.6168 F       2  LIG2        0.0000
     96 F           5.7452    2.1656    3.4572 F       2  LIG2        0.0000
     97 F           7.3495    2.1540    1.3771 F       2  LIG2        0.0000
     98 F           7.0234    3.9375   -0.6695 F       2  LIG2        0.0000
     99 F           4.9747    5.7180   -0.5691 F       2  LIG2        0.0000
    100 F           3.3308    5.7676    1.5344 F       2  LIG2        0.0000
@<TRIPOS>BOND
     1    98    66    1
     2    99    67    1
     3    27    24    1
     4    66    67   ar
     5    66    65   ar
     6    67    68   ar
     7    48    16    1
     8    92    59    1
     9    26    24    1
    10    24    25    1
    11    24    19    1
    12    47    15    1
    13    91    58    1
    14    29    28    1
    15    97    65    1
    16    65    64   ar
    17    68   100    1
    18    68    63   ar
    19    16    15   ar
    20    16    17   ar
    21    23    20    1
    22    15    14   ar
    23    30    28    1
    24    59    58   ar
    25    59    60   ar
    26    28    19    1
    27    28    31    1
    28    49    17    1
    29    58    57   ar
    30    19    20    1
    31    19    33    1
    32    17    18   ar
    33    64    63   ar
    34    64    96    1
    35    20    22    1
    36    20    21    1
    37    63    82    1
    38    14    46    1
    39    14    13   ar
    40    93    60    1
    41    86    52    1
    42    60    61   ar
    43    72    70    1
    44    18    13   ar
    45    18    50    1
    46    35    33    1
    47    73    70    1
    48    57    82    1
    49    57    62   ar
    50    13    32    1
    51    33    34    1
    52    33    32    1
    53    70    71    1
    54    70    69    1
    55    82    83    1
    56    82    51    1
    57    84    83    1
    58    61    62   ar
    59    61    94    1
    60    52    51   ar
    61    52    53   ar
    62    62    95    1
    63    87    53    1
    64    32     7    1
    65    32     1    1
    66    83    69    1
    67    83    85    1
    68    51    56   ar
    69    69    74    1
    70    69    78    1
    71    53    54   ar
    72    75    74    1
    73    45    12    1
    74    36     2    1
    75    81    78    1
    76     7    12   ar
    77     7     8   ar
    78     1     2   ar
    79     1     6   ar
    80    74    77    1
    81    74    76    1
    82    12    11   ar
    83     2     3   ar
    84    78    79    1
    85    78    80    1
    86    41     8    1
    87    40     6    1
    88     8     9   ar
    89    56    90    1
    90    56    55   ar
    91     6     5   ar
    92    54    55   ar
    93    54    88    1
    94     3    37    1
    95     3     4   ar
    96    11    44    1
    97    11    10   ar
    98    55    89    1
    99     9    10   ar
   100     9    42    1
   101     5     4   ar
   102     5    39    1
   103     4    38    1
   104    10    43    1
