@<TRIPOS>MOLECULE
C36 H28 N6
 35 37 0 0 0
SMALL
GASTEIGER

@<TRIPOS>ATOM
      1 N           9.0604   -0.4509    7.9321 N.pl3   1  LIG1       -0.1294
      2 N          15.1648    3.8750    3.6290 N.ar    1  LIG1       -0.2534
      3 N           9.8709    0.4353    7.5596 N.pl3   1  LIG1       -0.1293
      4 C          13.1571    3.2908    4.8250 C.ar    1  LIG1       -0.0265
      5 H          12.4667    3.5570    5.3873 H       1  LIG1        0.0645
      6 C          12.1390    0.9922    4.7116 C.ar    1  LIG1       -0.0159
      7 C          14.1578    4.1964    4.4797 C.ar    1  LIG1        0.0897
      8 C          15.1670    2.6269    3.1491 C.ar    1  LIG1        0.0289
      9 H          15.8459    2.3961    2.5564 H       1  LIG1        0.0830
     10 C          13.1868    1.9854    4.3303 C.ar    1  LIG1       -0.0143
     11 C          14.2393    1.6542    3.4665 C.ar    1  LIG1       -0.0358
     12 H          14.3122    0.7964    3.1140 H       1  LIG1        0.0639
     13 C          11.8176   -0.0743    3.8645 C.ar    1  LIG1       -0.0539
     14 H          12.2417   -0.1554    3.0409 H       1  LIG1        0.0624
     15 C          10.8674   -1.0124    4.2483 C.ar    1  LIG1       -0.0593
     16 H          10.6659   -1.7208    3.6802 H       1  LIG1        0.0618
     17 C           7.8796    1.1951   11.0852 C.ar    1  LIG1       -0.0570
     18 H           8.0034    1.9769   11.5744 H       1  LIG1        0.0621
     19 C          10.2144   -0.9078    5.4718 C.ar    1  LIG1       -0.0372
     20 H           9.5867   -1.5440    5.7274 H       1  LIG1        0.0637
     21 C           7.5059   -1.1208    9.6089 C.ar    1  LIG1       -0.0369
     22 H           7.3690   -1.8948    9.1121 H       1  LIG1        0.0637
     23 C           6.8075   -0.9293   10.8040 C.ar    1  LIG1       -0.0570
     24 H           6.2165   -1.5821   11.1023 H       1  LIG1        0.0621
     25 C           8.5843    1.0104    9.9044 C.ar    1  LIG1       -0.0369
     26 H           9.1762    1.6622    9.6070 H       1  LIG1        0.0637
     27 C          10.5158    0.1684    6.3097 C.ar    1  LIG1        0.0730
     28 C          11.4699    1.1030    5.9288 C.ar    1  LIG1       -0.0295
     29 H          11.6651    1.8147    6.4949 H       1  LIG1        0.0643
     30 C           8.4007   -0.1622    9.1625 C.ar    1  LIG1        0.0724
     31 C           6.9894    0.2296   11.5516 C.ar    1  LIG1       -0.0503
     32 C           6.1969    0.4319   12.8246 C.3     1  LIG1       -0.0397
     33 H           6.6160    1.1121   13.3575 H       1  LIG1        0.0278
     34 H           6.1694   -0.3899   13.3195 H       1  LIG1        0.0278
     35 H           5.3030    0.7036   12.6051 H       1  LIG1        0.0278
@<TRIPOS>BOND
     1     9     8    1
     2    14    13    1
     3    12    11    1
     4     8    11   ar
     5     8     2   ar
     6    11    10   ar
     7     2     7   ar
     8    16    15    1
     9    13    15   ar
    10    13     6   ar
    11    15    19   ar
    12    10     6    1
    13    10     4   ar
    14     7     4   ar
    15     6    28   ar
    16     4     5    1
    17    19    20    1
    18    19    27   ar
    19    28    27   ar
    20    28    29    1
    21    27     3    1
    22     3     1    1
    23     1    30    1
    24    22    21    1
    25    30    21   ar
    26    30    25   ar
    27    26    25    1
    28    21    23   ar
    29    25    17   ar
    30    23    24    1
    31    23    31   ar
    32    17    31   ar
    33    17    18    1
    34    31    32    1
    35    35    32    1
    36    32    34    1
    37    32    33    1
