@<TRIPOS>MOLECULE
?
 12 11 0 0 0
SMALL
GASTEIGER

@<TRIPOS>ATOM
      1 S           4.4347    3.6403    1.8259 S.3     1  LIG1       -0.0427
      2 C           3.5850    3.1964    0.2740 C.3     1  LIG1        0.0219
      3 H           2.6347    3.0950    0.4390 H       1  LIG1        0.0399
      4 H           3.7045    3.9047   -0.3779 H       1  LIG1        0.0399
      5 O           5.8701    3.9304    1.4618 O.3     1  LIG1       -0.1620
      6 C           3.6059    5.2407    2.0483 C.3     1  LIG1        0.0088
      7 H           3.7212    5.7776    1.2489 H       1  LIG1        0.0388
      8 H           2.6554    5.0965    2.1784 H       1  LIG1        0.0388
      9 C           4.1730    5.9906    3.2492 C.3     1  LIG1       -0.0548
     10 H           4.0400    5.4696    4.0443 H       1  LIG1        0.0238
     11 H           3.7243    6.8344    3.3408 H       1  LIG1        0.0238
     12 H           5.1121    6.1404    3.1183 H       1  LIG1        0.0238
@<TRIPOS>BOND
     1     4     2    1
     2     2     3    1
     3     2     1    1
     4     7     6    1
     5     5     1    1
     6     1     6    1
     7     6     8    1
     8     6     9    1
     9    12     9    1
    10     9    11    1
    11     9    10    1
