@<TRIPOS>MOLECULE
C20 H22 N4
 46 48 0 0 0
SMALL
GASTEIGER

@<TRIPOS>ATOM
      1 N           5.2709    2.2186   11.8169 N.3     1  LIG1       -0.2805
      2 N           3.6118    0.8476   14.5982 N.ar    1  LIG1       -0.2583
      3 N           4.8242    0.6738    8.7118 N.ar    1  LIG1       -0.2583
      4 N           8.1031    4.4433   11.5730 N.ar    1  LIG1       -0.2586
      5 C           5.2441    2.0956   13.2931 C.3     1  LIG1        0.0509
      6 C           5.7978    3.3243   13.9720 C.3     1  LIG1       -0.0439
      7 C           3.8283    1.8730   13.7595 C.ar    1  LIG1        0.0581
      8 C           2.3517    0.6880   15.0432 C.ar    1  LIG1        0.0279
      9 C           1.2971    1.4909   14.6980 C.ar    1  LIG1       -0.0436
     10 C           1.5340    2.5438   13.8451 C.ar    1  LIG1       -0.0586
     11 C           2.8133    2.7420   13.3830 C.ar    1  LIG1       -0.0389
     12 C           4.7460    1.0000   11.1451 C.3     1  LIG1        0.0509
     13 C           5.6404   -0.2236   11.2107 C.3     1  LIG1       -0.0439
     14 C           4.3309    1.3771    9.7316 C.ar    1  LIG1        0.0581
     15 C           4.4280    1.0214    7.4681 C.ar    1  LIG1        0.0279
     16 C           3.5770    2.0499    7.2000 C.ar    1  LIG1       -0.0436
     17 C           3.0585    2.7725    8.2540 C.ar    1  LIG1       -0.0586
     18 C           3.4391    2.4269    9.5305 C.ar    1  LIG1       -0.0389
     19 C           6.5958    2.5743   11.2949 C.3     1  LIG1        0.0424
     20 C           6.8737    4.0550   11.2207 C.ar    1  LIG1        0.0553
     21 C           8.3941    5.7492   11.4575 C.ar    1  LIG1        0.0279
     22 C           7.5194    6.6934   10.9839 C.ar    1  LIG1       -0.0436
     23 C           6.2637    6.2838   10.6159 C.ar    1  LIG1       -0.0586
     24 C           5.9247    4.9524   10.7472 C.ar    1  LIG1       -0.0391
     25 H           5.7743    1.3222   13.5584 H       1  LIG1        0.0525
     26 H           5.7800    3.2572   14.9063 H       1  LIG1        0.0248
     27 H           6.7021    3.4879   13.6796 H       1  LIG1        0.0248
     28 H           5.2748    4.0957   13.7025 H       1  LIG1        0.0248
     29 H           2.1869   -0.0518   15.6394 H       1  LIG1        0.0829
     30 H           0.3963    1.3334   15.0346 H       1  LIG1        0.0633
     31 H           0.8170    3.1566   13.6197 H       1  LIG1        0.0619
     32 H           3.0032    3.4635   12.7582 H       1  LIG1        0.0636
     33 H           3.9397    0.7673   11.6015 H       1  LIG1        0.0525
     34 H           5.8406   -0.4360   12.1178 H       1  LIG1        0.0248
     35 H           6.4635   -0.0518   10.7500 H       1  LIG1        0.0248
     36 H           5.2182   -0.9746   10.8028 H       1  LIG1        0.0248
     37 H           4.7845    0.5295    6.7193 H       1  LIG1        0.0829
     38 H           3.3145    2.2379    6.3042 H       1  LIG1        0.0633
     39 H           2.4672    3.5052    8.0686 H       1  LIG1        0.0619
     40 H           3.0970    2.8914   10.2779 H       1  LIG1        0.0636
     41 H           6.7082    2.2084   10.4163 H       1  LIG1        0.0491
     42 H           7.2657    2.1759   11.8640 H       1  LIG1        0.0491
     43 H           9.2811    6.0185   11.7228 H       1  LIG1        0.0829
     44 H           7.7973    7.6060   10.8955 H       1  LIG1        0.0633
     45 H           5.6151    6.9108   10.2665 H       1  LIG1        0.0619
     46 H           5.0221    4.6648   10.5375 H       1  LIG1        0.0636
@<TRIPOS>BOND
     1    38    16    1
     2    37    15    1
     3    16    15   ar
     4    16    17   ar
     5    15     3   ar
     6    39    17    1
     7    17    18   ar
     8     3    14   ar
     9    18    14   ar
    10    18    40    1
    11    14    12    1
    12    45    23    1
    13    41    19    1
    14    46    24    1
    15    23    24   ar
    16    23    22   ar
    17    24    20   ar
    18    35    13    1
    19    36    13    1
    20    44    22    1
    21    22    21   ar
    22    12    13    1
    23    12    33    1
    24    12     1    1
    25    13    34    1
    26    20    19    1
    27    20     4   ar
    28    19     1    1
    29    19    42    1
    30    21     4   ar
    31    21    43    1
    32     1     5    1
    33    32    11    1
    34     5    25    1
    35     5     7    1
    36     5     6    1
    37    11     7   ar
    38    11    10   ar
    39    31    10    1
    40    27     6    1
    41    28     6    1
    42     7     2   ar
    43    10     9   ar
    44     6    26    1
    45     2     8   ar
    46     9    30    1
    47     9     8   ar
    48     8    29    1
