@<TRIPOS>MOLECULE
?
 38 41 0 0 0
SMALL
GASTEIGER

@<TRIPOS>ATOM
      1 N           1.6281   -1.8468    4.7967 N.pl3   1  LIG1        0.0587
      2 N          -0.9832   -2.3846    3.2390 N.ar    1  LIG1       -0.0465
      3 N          -2.3086   -0.6857    2.4369 N.ar    1  LIG1       -0.0470
      4 N          -1.8998    2.1110    2.8269 N.pl3   1  LIG1       -0.3288
      5 H          -2.5818    1.8550    2.3187 H       1  LIG1        0.1471
      6 N          -3.7796    3.4110    1.5961 N.ar    1  LIG1       -0.2576
      7 N          -0.1242    3.4180    1.1095 N.ar    1  LIG1       -0.2576
      8 O           1.3093   -3.0352    4.6647 O.2     1  LIG1       -0.1261
      9 O           2.6812   -1.4767    5.3208 O.2     1  LIG1       -0.1261
     10 O          -2.1362   -2.0399    2.5317 O.2     1  LIG1       -0.2414
     11 C           0.7234   -0.8605    4.2972 C.ar    1  LIG1        0.1570
     12 C           0.9792    0.4791    4.4812 C.ar    1  LIG1       -0.0274
     13 H           1.7642    0.7239    4.9572 H       1  LIG1        0.0642
     14 C           0.1452    1.5062    4.0045 C.ar    1  LIG1       -0.0364
     15 H           0.3783    2.4115    4.1746 H       1  LIG1        0.0637
     16 C          -1.0138    1.2237    3.2877 C.ar    1  LIG1        0.0593
     17 C          -1.2825   -0.1784    3.0712 C.ar    1  LIG1        0.1572
     18 C          -0.4502   -1.2277    3.5719 C.ar    1  LIG1        0.1660
     19 C          -1.7442    3.5437    2.9282 C.3     1  LIG1        0.1055
     20 H          -1.7044    3.7953    3.8943 H       1  LIG1        0.0629
     21 C          -2.9736    4.2011    2.2986 C.ar    1  LIG1        0.0673
     22 C          -3.1798    5.5707    2.4404 C.ar    1  LIG1       -0.0382
     23 H          -2.5945    6.0980    2.9706 H       1  LIG1        0.0636
     24 C          -4.2585    6.1475    1.7900 C.ar    1  LIG1       -0.0586
     25 H          -4.4234    7.0810    1.8600 H       1  LIG1        0.0619
     26 C          -5.0964    5.3371    1.0317 C.ar    1  LIG1       -0.0436
     27 H          -5.8371    5.7078    0.5667 H       1  LIG1        0.0633
     28 C          -4.8307    3.9799    0.9667 C.ar    1  LIG1        0.0279
     29 H          -5.4110    3.4264    0.4588 H       1  LIG1        0.0829
     30 C          -0.4767    4.0474    2.2347 C.ar    1  LIG1        0.0673
     31 C           0.2150    5.1276    2.7601 C.ar    1  LIG1       -0.0382
     32 H          -0.0691    5.5415    3.5663 H       1  LIG1        0.0636
     33 C           1.3356    5.5920    2.0788 C.ar    1  LIG1       -0.0586
     34 H           1.8307    6.3326    2.4101 H       1  LIG1        0.0619
     35 C           1.7152    4.9557    0.9125 C.ar    1  LIG1       -0.0436
     36 H           2.4756    5.2494    0.4256 H       1  LIG1        0.0633
     37 C           0.9622    3.8810    0.4687 C.ar    1  LIG1        0.0279
     38 H           1.2288    3.4477   -0.3342 H       1  LIG1        0.0829
@<TRIPOS>BOND
     1    38    37    1
     2    36    35    1
     3    29    28    1
     4    37    35   ar
     5    37     7   ar
     6    27    26    1
     7    35    33   ar
     8    28    26   ar
     9    28     6   ar
    10    26    24   ar
    11     7    30   ar
    12     6    21   ar
    13    24    25    1
    14    24    22   ar
    15    33    34    1
    16    33    31   ar
    17    30    31   ar
    18    30    19    1
    19    21    22   ar
    20    21    19    1
    21     5     4    1
    22     3    10   ar
    23     3    17   ar
    24    22    23    1
    25    10     2   ar
    26    31    32    1
    27     4    19    1
    28     4    16    1
    29    19    20    1
    30    17    16   ar
    31    17    18   ar
    32     2    18   ar
    33    16    14   ar
    34    18    11   ar
    35    14    15    1
    36    14    12   ar
    37    11    12   ar
    38    11     1    1
    39    12    13    1
    40     8     1    2
    41     1     9    2
