@<TRIPOS>MOLECULE
?
 75 78 0 0 0
SMALL
GASTEIGER

@<TRIPOS>ATOM
      1 S           2.3171    4.7586    3.2079 S.3     1  LIG1       -0.1067
      2 S           0.1204    9.3427    0.5457 S.3     1  LIG1       -0.1067
      3 S           2.3695    4.9240   -2.9338 S.3     1  LIG1       -0.1067
      4 N           3.1225    4.6356    5.7937 N.pl3   1  LIG1       -0.3051
      5 N           1.5595    3.1710    5.3010 N.pl3   1  LIG1       -0.3161
      6 H           0.9590    2.6958    4.8666 H       1  LIG1        0.1485
      7 N          -1.1035   11.7376    0.1261 N.pl3   1  LIG1       -0.3051
      8 N          -0.2032   10.8790   -1.6720 N.pl3   1  LIG1       -0.3161
      9 H           0.2348   10.3512   -2.2231 H       1  LIG1        0.1485
     10 N           3.0837    5.2728   -5.5158 N.pl3   1  LIG1       -0.3051
     11 N           1.5577    3.7109   -5.2393 N.pl3   1  LIG1       -0.3161
     12 H           0.9806    3.1615   -4.8643 H       1  LIG1        0.1485
     13 C           0.3567    4.8327    1.3341 C.ar    1  LIG1       -0.0305
     14 C          -0.3142    6.0638    1.4000 C.ar    1  LIG1       -0.0392
     15 C          -0.6131    6.7456    0.2139 C.ar    1  LIG1       -0.0305
     16 C          -0.2619    6.2069   -1.0432 C.ar    1  LIG1       -0.0392
     17 C           0.3802    4.9569   -1.0861 C.ar    1  LIG1       -0.0305
     18 C           0.7359    4.2860    0.0913 C.ar    1  LIG1       -0.0392
     19 C           0.7070    4.1132    2.6236 C.3     1  LIG1        0.0230
     20 H           0.7693    3.1372    2.4637 H       1  LIG1        0.0426
     21 H           0.0081    4.2738    3.3044 H       1  LIG1        0.0426
     22 C           2.3062    4.1200    4.8318 C.3     1  LIG1        0.1964
     23 C           2.8571    3.9337    6.9333 C.2     1  LIG1        0.0080
     24 H           3.2715    4.0444    7.7810 H       1  LIG1        0.0793
     25 C           1.9098    3.0697    6.6204 C.2     1  LIG1        0.0056
     26 H           1.5206    2.4555    7.2322 H       1  LIG1        0.0791
     27 C           4.1059    5.6845    5.6209 C.3     1  LIG1        0.0030
     28 H           4.5574    5.8533    6.4733 H       1  LIG1        0.0428
     29 H           3.6598    6.5039    5.3197 H       1  LIG1        0.0428
     30 H           4.7651    5.4064    4.9507 H       1  LIG1        0.0428
     31 C          -0.7016    6.6497    2.7546 C.3     1  LIG1       -0.0299
     32 H          -0.6854    7.6378    2.6972 H       1  LIG1        0.0311
     33 H          -0.0334    6.3730    3.4305 H       1  LIG1        0.0311
     34 C          -2.0949    6.1934    3.2063 C.3     1  LIG1       -0.0612
     35 H          -2.2999    6.5863    4.0820 H       1  LIG1        0.0233
     36 H          -2.1121    5.2161    3.2763 H       1  LIG1        0.0233
     37 H          -2.7631    6.4864    2.5524 H       1  LIG1        0.0233
     38 C          -1.2534    8.1238    0.2919 C.3     1  LIG1        0.0230
     39 H          -1.8927    8.1643    1.0485 H       1  LIG1        0.0426
     40 H          -1.7419    8.3250   -0.5441 H       1  LIG1        0.0426
     41 C          -0.4253   10.6995   -0.3993 C.3     1  LIG1        0.1964
     42 C          -1.3680   12.6123   -0.8734 C.2     1  LIG1        0.0080
     43 H          -1.8484   13.4290   -0.8127 H       1  LIG1        0.0793
     44 C          -0.8118   12.0831   -1.9593 C.2     1  LIG1        0.0056
     45 H          -0.8298   12.4827   -2.8210 H       1  LIG1        0.0791
     46 C          -1.5459   11.8712    1.5039 C.3     1  LIG1        0.0030
     47 H          -2.0055   12.7297    1.6183 H       1  LIG1        0.0428
     48 H          -0.7693   11.8361    2.1017 H       1  LIG1        0.0428
     49 H          -2.1600   11.1395    1.7234 H       1  LIG1        0.0428
     50 C          -0.5608    6.9710   -2.3152 C.3     1  LIG1       -0.0299
     51 H           0.1029    6.7186   -3.0055 H       1  LIG1        0.0311
     52 H          -0.4596    7.9402   -2.1391 H       1  LIG1        0.0311
     53 C          -1.9766    6.7078   -2.8630 C.3     1  LIG1       -0.0612
     54 H          -2.1103    7.2248   -3.6850 H       1  LIG1        0.0233
     55 H          -2.6403    6.9764   -2.1951 H       1  LIG1        0.0233
     56 H          -2.0778    5.7520   -3.0592 H       1  LIG1        0.0233
     57 C           0.7061    4.3494   -2.4312 C.3     1  LIG1        0.0230
     58 H           0.0334    4.6302   -3.1012 H       1  LIG1        0.0426
     59 H           0.6926    3.3613   -2.3703 H       1  LIG1        0.0426
     60 C           2.3062    4.5924   -4.6464 C.3     1  LIG1        0.1964
     61 C           2.7911    4.7693   -6.7582 C.2     1  LIG1        0.0080
     62 H           3.1740    5.0393   -7.5849 H       1  LIG1        0.0793
     63 C           1.8602    3.8203   -6.5784 C.2     1  LIG1        0.0056
     64 H           1.4683    3.3019   -7.2696 H       1  LIG1        0.0791
     65 C           4.0409    6.3136   -5.2029 C.3     1  LIG1        0.0030
     66 H           4.0454    6.4715   -4.2361 H       1  LIG1        0.0428
     67 H           3.7908    7.1384   -5.6676 H       1  LIG1        0.0428
     68 H           4.9339    6.0328   -5.4925 H       1  LIG1        0.0428
     69 C           1.4800    2.9631    0.0201 C.3     1  LIG1       -0.0299
     70 H           2.0660    2.8794    0.8127 H       1  LIG1        0.0311
     71 H           2.0561    2.9590   -0.7846 H       1  LIG1        0.0311
     72 C           0.5391    1.7657   -0.0327 C.3     1  LIG1       -0.0612
     73 H           1.0637    0.9395   -0.0747 H       1  LIG1        0.0233
     74 H          -0.0298    1.8318   -0.8290 H       1  LIG1        0.0233
     75 H          -0.0235    1.7549    0.7683 H       1  LIG1        0.0233
@<TRIPOS>BOND
     1    62    61    1
     2    64    63    1
     3    61    63    2
     4    61    10    1
     5    63    11    1
     6    67    65    1
     7    10    65    1
     8    10    60    1
     9    68    65    1
    10    11    12    1
    11    11    60    1
    12    65    66    1
    13    60     3    1
    14    54    53    1
    15    58    57    1
    16    56    53    1
    17    51    50    1
    18     3    57    1
    19    53    50    1
    20    53    55    1
    21    45    44    1
    22    57    59    1
    23    57    17    1
    24    50    52    1
    25    50    16    1
    26     9     8    1
    27    44     8    1
    28    44    42    2
    29     8    41    1
    30    17    16   ar
    31    17    18   ar
    32    16    15   ar
    33    42    43    1
    34    42     7    1
    35    74    72    1
    36    71    69    1
    37    40    38    1
    38    41     7    1
    39    41     2    1
    40    73    72    1
    41    72    69    1
    42    72    75    1
    43    69    18    1
    44    69    70    1
    45    18    13   ar
    46     7    46    1
    47    15    38    1
    48    15    14   ar
    49    38     2    1
    50    38    39    1
    51    13    14   ar
    52    13    19    1
    53    14    31    1
    54    46    47    1
    55    46    49    1
    56    46    48    1
    57    20    19    1
    58    37    34    1
    59    19     1    1
    60    19    21    1
    61    32    31    1
    62    31    34    1
    63    31    33    1
    64    34    36    1
    65    34    35    1
    66     1    22    1
    67    22     5    1
    68    22     4    1
    69     6     5    1
    70    30    27    1
    71     5    25    1
    72    29    27    1
    73    27     4    1
    74    27    28    1
    75     4    23    1
    76    25    23    2
    77    25    26    1
    78    23    24    1
