@<TRIPOS>MOLECULE
?
 57 60 0 0 0
SMALL
GASTEIGER

@<TRIPOS>ATOM
      1 P           4.7656   11.2335    8.2306 P.3     1  LIG1        0.3147
      2 P           5.9789    9.7081    6.2333 P.3     1  LIG1        0.3173
      3 P           5.1333    8.4784    8.5922 P.3     1  LIG1        0.3173
      4 N           5.3939   11.0865    6.7730 N.3     1  LIG1        0.1278
      5 N           5.6125    8.3880    7.0655 N.3     1  LIG1        0.1281
      6 N           4.6286    9.9086    9.1121 N.3     1  LIG1        0.1278
      7 C           3.1440   11.9891    8.0593 C.3     1  LIG1        0.0972
      8 H           2.7747   12.1565    8.9297 H       1  LIG1        0.0705
      9 H           2.5637   11.3977    7.5743 H       1  LIG1        0.0705
     10 H           3.2254   12.8183    7.5820 H       1  LIG1        0.0705
     11 C           5.4096    9.4745    4.5380 C.3     1  LIG1        0.1049
     12 H           5.7528   10.1968    3.9887 H       1  LIG1        0.0739
     13 H           5.7728    8.6430    4.1951 H       1  LIG1        0.0739
     14 C           3.8007    7.3012    8.8555 C.3     1  LIG1        0.1049
     15 H           4.1210    6.4129    8.6370 H       1  LIG1        0.0739
     16 H           3.5608    7.3061    9.7958 H       1  LIG1        0.0739
     17 C           3.9516    9.4395    4.4201 C.3     1  LIG1       -0.0271
     18 H           3.7076    9.3059    3.5016 H       1  LIG1        0.0266
     19 H           3.5853   10.2703    4.7303 H       1  LIG1        0.0266
     20 H           3.6044    8.7188    4.9509 H       1  LIG1        0.0266
     21 C           2.5564    7.5921    8.0309 C.3     1  LIG1       -0.0271
     22 H           1.8710    6.9594    8.2548 H       1  LIG1        0.0266
     23 H           2.7676    7.5189    7.0970 H       1  LIG1        0.0266
     24 H           2.2467    8.4801    8.2209 H       1  LIG1        0.0266
     25 C           5.7048   12.4740    9.1449 C.ar    1  LIG1        0.1411
     26 C           6.2373   13.5645    8.4874 C.ar    1  LIG1       -0.0159
     27 H           6.1417   13.6359    7.5656 H       1  LIG1        0.0658
     28 C           6.9070   14.5453    9.1755 C.ar    1  LIG1       -0.0580
     29 H           7.2462   15.2826    8.7211 H       1  LIG1        0.0619
     30 C           7.0742   14.4385   10.5167 C.ar    1  LIG1       -0.0615
     31 H           7.5420   15.0955   10.9798 H       1  LIG1        0.0618
     32 C           6.5587   13.3707   11.1851 C.ar    1  LIG1       -0.0580
     33 H           6.6611   13.3078   12.1069 H       1  LIG1        0.0619
     34 C           5.8828   12.3799   10.4959 C.ar    1  LIG1       -0.0159
     35 H           5.5483   11.6444   10.9557 H       1  LIG1        0.0658
     36 C           7.7771    9.8345    6.0704 C.ar    1  LIG1        0.1413
     37 C           8.5067    8.7728    5.5625 C.ar    1  LIG1       -0.0159
     38 H           8.0666    8.0061    5.2731 H       1  LIG1        0.0658
     39 C           9.8717    8.8430    5.4839 C.ar    1  LIG1       -0.0580
     40 H          10.3547    8.1147    5.1639 H       1  LIG1        0.0619
     41 C          10.5344    9.9895    5.8749 C.ar    1  LIG1       -0.0615
     42 H          11.4610   10.0357    5.8148 H       1  LIG1        0.0618
     43 C           9.8193   11.0636    6.3544 C.ar    1  LIG1       -0.0580
     44 H          10.2612   11.8413    6.6110 H       1  LIG1        0.0619
     45 C           8.4520   10.9846    6.4526 C.ar    1  LIG1       -0.0159
     46 H           7.9718   11.7118    6.7792 H       1  LIG1        0.0658
     47 C           6.4553    7.8791    9.6702 C.ar    1  LIG1        0.1413
     48 C           6.2637    7.7986   11.0409 C.ar    1  LIG1       -0.0159
     49 H           5.4440    8.0427   11.4057 H       1  LIG1        0.0658
     50 C           7.2677    7.3619   11.8634 C.ar    1  LIG1       -0.0580
     51 H           7.1287    7.3379   12.7830 H       1  LIG1        0.0619
     52 C           8.4768    6.9608   11.3489 C.ar    1  LIG1       -0.0615
     53 H           9.1526    6.6504   11.9081 H       1  LIG1        0.0618
     54 C           8.6644    7.0279    9.9968 C.ar    1  LIG1       -0.0580
     55 H           9.4799    6.7639    9.6364 H       1  LIG1        0.0619
     56 C           7.6703    7.4787    9.1547 C.ar    1  LIG1       -0.0159
     57 H           7.8189    7.5131    8.2373 H       1  LIG1        0.0658
@<TRIPOS>BOND
     1    18    17    1
     2    12    11    1
     3    13    11    1
     4    17    11    1
     5    17    19    1
     6    17    20    1
     7    11     2    1
     8    40    39    1
     9    38    37    1
    10    39    37   ar
    11    39    41   ar
    12    37    36   ar
    13    42    41    1
    14    41    43   ar
    15    36     2    1
    16    36    45   ar
    17     2     4    1
    18     2     5    1
    19    43    45   ar
    20    43    44    1
    21    45    46    1
    22     4     1    1
    23     5     3    1
    24    23    21    1
    25    27    26    1
    26     9     7    1
    27    10     7    1
    28    21    24    1
    29    21    22    1
    30    21    14    1
    31     7     1    1
    32     7     8    1
    33     1     6    1
    34     1    25    1
    35    57    56    1
    36    26    25   ar
    37    26    28   ar
    38     3    14    1
    39     3     6    1
    40     3    47    1
    41    15    14    1
    42    29    28    1
    43    14    16    1
    44    25    34   ar
    45    56    47   ar
    46    56    54   ar
    47    28    30   ar
    48    55    54    1
    49    47    48   ar
    50    54    52   ar
    51    34    35    1
    52    34    32   ar
    53    30    31    1
    54    30    32   ar
    55    48    49    1
    56    48    50   ar
    57    32    33    1
    58    52    50   ar
    59    52    53    1
    60    50    51    1
