@<TRIPOS>MOLECULE
?
 54 57 0 0 0
SMALL
GASTEIGER

@<TRIPOS>ATOM
      1 S           5.3642    1.3858   16.6893 S.3     1  LIG1        0.1613
      2 P           6.2017    3.3487   14.9111 P.3     1  LIG1        0.5350
      3 P           5.0435    1.0525   13.9537 P.3     1  LIG1        0.5350
      4 O           6.0808    0.6968   17.7233 O.3     1  LIG1       -0.1286
      5 O           3.5578    0.9015   13.5064 O.3     1  LIG1       -0.1648
      6 O           5.7094    4.8343   14.8667 O.3     1  LIG1       -0.1648
      7 O           7.7469    3.4993   14.7042 O.3     1  LIG1       -0.1648
      8 O           5.7631    0.0086   13.0355 O.3     1  LIG1       -0.1648
      9 N           6.0153    2.7724   16.3817 N.3     1  LIG1        0.1015
     10 N           5.5553    2.5187   13.7377 N.3     1  LIG1        0.2438
     11 N           5.1457    0.4920   15.4504 N.3     1  LIG1        0.1015
     12 C           2.8391    1.7565   12.5750 C.3     1  LIG1        0.1022
     13 H           2.2981    1.2069   11.9868 H       1  LIG1        0.0609
     14 H           3.4766    2.2425   12.0282 H       1  LIG1        0.0609
     15 C           1.9597    2.7311   13.2981 C.3     1  LIG1       -0.0069
     16 H           1.5990    2.2993   14.0885 H       1  LIG1        0.0331
     17 H           1.2115    2.9634   12.7252 H       1  LIG1        0.0331
     18 C           2.6581    3.9939   13.7148 C.2     1  LIG1       -0.0855
     19 H           3.0712    4.4756   13.0361 H       1  LIG1        0.0570
     20 C           2.7542    4.4911   14.9050 C.2     1  LIG1       -0.0855
     21 H           2.3335    4.0395   15.6005 H       1  LIG1        0.0570
     22 C           3.4993    5.7470   15.2328 C.3     1  LIG1       -0.0069
     23 H           2.9732    6.2726   15.8563 H       1  LIG1        0.0331
     24 H           3.6086    6.2700   14.4225 H       1  LIG1        0.0331
     25 C           4.8486    5.4864   15.8318 C.3     1  LIG1        0.1022
     26 H           5.2483    6.3259   16.1091 H       1  LIG1        0.0609
     27 H           4.7550    4.9238   16.6146 H       1  LIG1        0.0609
     28 C           8.2846    4.0799   13.4834 C.3     1  LIG1        0.1022
     29 H           8.6311    4.9685   13.6611 H       1  LIG1        0.0609
     30 H           7.5874    4.1513   12.8125 H       1  LIG1        0.0609
     31 C           9.3912    3.1853   12.9841 C.3     1  LIG1       -0.0069
     32 H          10.0231    3.0227   13.7010 H       1  LIG1        0.0331
     33 H           9.8626    3.6266   12.2610 H       1  LIG1        0.0331
     34 C           8.8374    1.8692   12.4939 C.2     1  LIG1       -0.0855
     35 H           8.5201    1.8572   11.6192 H       1  LIG1        0.0570
     36 C           8.7579    0.8155   13.1127 C.2     1  LIG1       -0.0855
     37 H           9.1356    0.8146   13.9629 H       1  LIG1        0.0570
     38 C           8.1287   -0.4783   12.6731 C.3     1  LIG1       -0.0069
     39 H           7.9149   -0.4198   11.7279 H       1  LIG1        0.0331
     40 H           8.7712   -1.1965   12.7864 H       1  LIG1        0.0331
     41 C           6.8825   -0.8120   13.4344 C.3     1  LIG1        0.1022
     42 H           6.6620   -1.7453   13.2904 H       1  LIG1        0.0609
     43 H           7.0472   -0.6882   14.3826 H       1  LIG1        0.0609
     44 C           3.7465    1.7161   17.3560 C.ar    1  LIG1        0.0530
     45 C           2.6403    1.0383   16.8826 C.ar    1  LIG1       -0.0450
     46 H           2.7222    0.4370   16.1780 H       1  LIG1        0.0630
     47 C           1.4044    1.2645   17.4709 C.ar    1  LIG1       -0.0606
     48 H           0.6541    0.8120   17.1614 H       1  LIG1        0.0618
     49 C           1.2900    2.1557   18.5095 C.ar    1  LIG1       -0.0617
     50 H           0.4593    2.3010   18.9047 H       1  LIG1        0.0618
     51 C           2.3823    2.8258   18.9644 C.ar    1  LIG1       -0.0606
     52 H           2.2936    3.4339   19.6630 H       1  LIG1        0.0618
     53 C           3.6171    2.6098   18.3961 C.ar    1  LIG1       -0.0450
     54 H           4.3616    3.0658   18.7147 H       1  LIG1        0.0630
@<TRIPOS>BOND
     1    35    34    1
     2    39    38    1
     3    13    12    1
     4    14    12    1
     5    33    31    1
     6    34    31    1
     7    34    36    2
     8    12    15    1
     9    12     5    1
    10    38    40    1
    11    38    36    1
    12    38    41    1
    13    17    15    1
    14    30    28    1
    15    31    28    1
    16    31    32    1
    17     8    41    1
    18     8     3    1
    19    19    18    1
    20    36    37    1
    21    42    41    1
    22    15    18    1
    23    15    16    1
    24    41    43    1
    25    28    29    1
    26    28     7    1
    27     5     3    1
    28    18    20    2
    29    10     3    1
    30    10     2    1
    31     3    11    1
    32    24    22    1
    33     7     2    1
    34     6     2    1
    35     6    25    1
    36    20    22    1
    37    20    21    1
    38     2     9    1
    39    22    25    1
    40    22    23    1
    41    11     1    1
    42    25    26    1
    43    25    27    1
    44    46    45    1
    45     9     1    1
    46     1    44    1
    47     1     4    1
    48    45    44   ar
    49    45    47   ar
    50    48    47    1
    51    44    53   ar
    52    47    49   ar
    53    53    54    1
    54    53    51   ar
    55    49    50    1
    56    49    51   ar
    57    51    52    1
