@<TRIPOS>MOLECULE
?
 96 102 0 0 0
SMALL
GASTEIGER

@<TRIPOS>ATOM
      1 F           5.8914    2.8180   -0.7293 F       1  LIG1        0.0000
      2 F           7.9645    1.2994   -0.6500 F       1  LIG1        0.0000
      3 F           8.7317    0.0465    1.6586 F       1  LIG1        0.0000
      4 F           7.3061    0.5069    3.9291 F       1  LIG1        0.0000
      5 F           5.1744    2.0523    3.8953 F       1  LIG1        0.0000
      6 F           3.1010    0.7425    1.4111 F       1  LIG1        0.0000
      7 F           1.3333   -0.5760    2.8899 F       1  LIG1        0.0000
      8 F           0.0545    0.6701    4.9405 F       1  LIG1        0.0000
      9 F           0.5602    3.2871    5.4472 F       1  LIG1        0.0000
     10 F           2.2612    4.6398    3.9578 F       1  LIG1        0.0000
     11 F          -0.0494   16.2157    3.6057 F       2  LIG2        0.0000
     12 F          -2.1392   17.7816    3.5856 F       2  LIG2        0.0000
     13 F          -2.9202   19.1250    5.8144 F       2  LIG2        0.0000
     14 F          -1.5202   18.8040    8.1259 F       2  LIG2        0.0000
     15 F           0.5828   17.2178    8.2099 F       2  LIG2        0.0000
     16 F           2.4418   18.5952    5.6028 F       2  LIG2        0.0000
     17 F           3.9342   20.2176    7.0434 F       2  LIG2        0.0000
     18 F           5.3272   19.3022    9.1922 F       2  LIG2        0.0000
     19 F           5.1966   16.6558    9.8389 F       2  LIG2        0.0000
     20 F           3.7039   15.0028    8.4352 F       2  LIG2        0.0000
     21 N           3.3283    4.1764    0.4282 N.4     1  LIG1        1.0000
     22 N           2.6471   15.1200    4.8460 N.4     2  LIG2        1.0000
     23 C           4.6273    4.8923    2.3726 C.ar    1  LIG1        0.0000
     24 C           5.0624    5.2702    3.6433 C.ar    1  LIG1        0.0000
     25 H           4.9937    4.6712    4.3503 H       1  LIG1        0.0000
     26 C           5.5970    6.5275    3.8630 C.ar    1  LIG1        0.0000
     27 H           5.8758    6.7647    4.7181 H       1  LIG1        0.0000
     28 C           5.7198    7.4349    2.8344 C.ar    1  LIG1        0.0000
     29 H           6.0771    8.2790    2.9920 H       1  LIG1        0.0000
     30 C           5.3038    7.0790    1.5605 C.ar    1  LIG1        0.0000
     31 H           5.3788    7.6820    0.8567 H       1  LIG1        0.0000
     32 C           4.7779    5.8178    1.3455 C.ar    1  LIG1        0.0000
     33 C           4.3029    5.2777    0.0223 C.3     1  LIG1        0.0000
     34 H           5.0698    4.8432   -0.4045 H       1  LIG1        0.0000
     35 C           3.7630    6.2944   -0.9570 C.3     1  LIG1        0.0000
     36 H           3.1208    6.8556   -0.5159 H       1  LIG1        0.0000
     37 H           3.3409    5.8396   -1.6895 H       1  LIG1        0.0000
     38 H           4.4848    6.8339   -1.2882 H       1  LIG1        0.0000
     39 C           2.9926    3.2258   -0.6831 C.3     1  LIG1        0.0000
     40 H           2.3948    2.5501   -0.3551 H       1  LIG1        0.0000
     41 H           3.7975    2.8130   -1.0048 H       1  LIG1        0.0000
     42 H           2.5712    3.7066   -1.3981 H       1  LIG1        0.0000
     43 C           2.0272    4.8160    0.8073 C.3     1  LIG1        0.0000
     44 H           1.6481    5.2465    0.0382 H       1  LIG1        0.0000
     45 H           2.1804    5.4659    1.4952 H       1  LIG1        0.0000
     46 H           1.4220    4.1434    1.1290 H       1  LIG1        0.0000
     47 C           5.3286    2.5157    1.5748 C.ar    1  LIG1        0.0000
     48 C           6.1463    2.2615    0.4825 C.ar    1  LIG1        0.0000
     49 C           7.2596    1.4629    0.4888 C.ar    1  LIG1        0.0000
     50 C           7.6499    0.8599    1.6290 C.ar    1  LIG1        0.0000
     51 C           6.9243    1.0655    2.7627 C.ar    1  LIG1        0.0000
     52 C           5.8202    1.8780    2.7086 C.ar    1  LIG1        0.0000
     53 C           2.8600    2.7478    2.6385 C.ar    1  LIG1        0.0000
     54 C           2.5159    1.4194    2.4283 C.ar    1  LIG1        0.0000
     55 C           1.6152    0.7136    3.1815 C.ar    1  LIG1        0.0000
     56 C           0.9806    1.3284    4.2054 C.ar    1  LIG1        0.0000
     57 C           1.2236    2.6391    4.4538 C.ar    1  LIG1        0.0000
     58 C           2.1242    3.3151    3.6672 C.ar    1  LIG1        0.0000
     59 C           1.3948   14.3676    6.8104 C.ar    2  LIG2        0.0000
     60 C           0.9814   13.9900    8.0907 C.ar    2  LIG2        0.0000
     61 H           0.9491   14.6266    8.7690 H       2  LIG2        0.0000
     62 C           0.6182   12.6833    8.3614 C.ar    2  LIG2        0.0000
     63 H           0.3420   12.4521    9.2180 H       2  LIG2        0.0000
     64 C           0.6624   11.7167    7.3741 C.ar    2  LIG2        0.0000
     65 H           0.4369   10.8370    7.5732 H       2  LIG2        0.0000
     66 C           1.0470   12.0606    6.0859 C.ar    2  LIG2        0.0000
     67 H           1.0753   11.4182    5.4139 H       2  LIG2        0.0000
     68 C           1.3823   13.3693    5.8200 C.ar    2  LIG2        0.0000
     69 C           1.7918   13.9151    4.4697 C.3     2  LIG2        0.0000
     70 H           0.9814   14.2569    4.0366 H       2  LIG2        0.0000
     71 C           2.4342   12.9291    3.5095 C.3     2  LIG2        0.0000
     72 H           3.1455   12.4639    3.9570 H       2  LIG2        0.0000
     73 H           2.7865   13.4029    2.7532 H       2  LIG2        0.0000
     74 H           1.7759   12.2959    3.2133 H       2  LIG2        0.0000
     75 C           2.9212   16.0574    3.7197 C.3     2  LIG2        0.0000
     76 H           3.4257   16.8070    4.0429 H       2  LIG2        0.0000
     77 H           2.0909   16.3642    3.3503 H       2  LIG2        0.0000
     78 H           3.4250   15.6031    3.0398 H       2  LIG2        0.0000
     79 C           3.9943   14.6048    5.2882 C.3     2  LIG2        0.0000
     80 H           4.4359   14.1877    4.5445 H       2  LIG2        0.0000
     81 H           3.8764   13.9623    5.9920 H       2  LIG2        0.0000
     82 H           4.5267   15.3362    5.6082 H       2  LIG2        0.0000
     83 C           0.4796   16.6548    5.9012 C.ar    2  LIG2        0.0000
     84 C          -0.0400   17.3447    6.9999 C.ar    2  LIG2        0.0000
     85 C          -1.1344   18.1592    6.9935 C.ar    2  LIG2        0.0000
     86 C          -1.8532   18.3153    5.8518 C.ar    2  LIG2        0.0000
     87 C          -1.4507   17.6353    4.7404 C.ar    2  LIG2        0.0000
     88 C          -0.3313   16.8406    4.7897 C.ar    2  LIG2        0.0000
     89 C           2.9240   16.7161    6.9617 C.ar    2  LIG2        0.0000
     90 C           3.0781   18.0445    6.6719 C.ar    2  LIG2        0.0000
     91 C           3.8449   18.9163    7.3789 C.ar    2  LIG2        0.0000
     92 C           4.5469   18.4715    8.4601 C.ar    2  LIG2        0.0000
     93 C           4.4836   17.1549    8.7897 C.ar    2  LIG2        0.0000
     94 C           3.6903   16.3049    8.0477 C.ar    2  LIG2        0.0000
     95 B           4.0213    3.5306    1.8057 B       1  LIG1        0.0000
     96 B           1.8575   15.7553    6.1862 B       2  LIG2        0.0000
@<TRIPOS>BOND
     1    37    35    1
     2    42    39    1
     3    38    35    1
     4    41    39    1
     5    35    36    1
     6    35    33    1
     7     1    48    1
     8    39    40    1
     9    39    21    1
    10     2    49    1
    11    34    33    1
    12    33    21    1
    13    33    32    1
    14    44    43    1
    15    21    43    1
    16    21    95    1
    17    48    49   ar
    18    48    47   ar
    19    49    50   ar
    20    43    46    1
    21    43    45    1
    22    31    30    1
    23    32    30   ar
    24    32    23   ar
    25     6    54    1
    26    30    28   ar
    27    47    95    1
    28    47    52   ar
    29    50     3    1
    30    50    51   ar
    31    95    23    1
    32    95    53    1
    33    23    24   ar
    34    54    53   ar
    35    54    55   ar
    36    53    58   ar
    37    52    51   ar
    38    52     5    1
    39    73    71    1
    40    51     4    1
    41    28    29    1
    42    28    26   ar
    43     7    55    1
    44    78    75    1
    45    55    56   ar
    46    74    71    1
    47    77    75    1
    48    71    72    1
    49    71    69    1
    50    12    87    1
    51    11    88    1
    52    24    26   ar
    53    24    25    1
    54    58    10    1
    55    58    57   ar
    56    75    76    1
    57    75    22    1
    58    26    27    1
    59    70    69    1
    60    56    57   ar
    61    56     8    1
    62    57     9    1
    63    69    22    1
    64    69    68    1
    65    80    79    1
    66    87    88   ar
    67    87    86   ar
    68    88    83   ar
    69    22    79    1
    70    22    96    1
    71    79    82    1
    72    79    81    1
    73    67    66    1
    74    16    90    1
    75    13    86    1
    76    68    66   ar
    77    68    59   ar
    78    86    85   ar
    79    83    96    1
    80    83    84   ar
    81    66    64   ar
    82    96    59    1
    83    96    89    1
    84    90    89   ar
    85    90    91   ar
    86    59    60   ar
    87    89    94   ar
    88    85    84   ar
    89    85    14    1
    90    84    15    1
    91    17    91    1
    92    64    65    1
    93    64    62   ar
    94    91    92   ar
    95    94    20    1
    96    94    93   ar
    97    60    62   ar
    98    60    61    1
    99    62    63    1
   100    92    93   ar
   101    92    18    1
   102    93    19    1
