@<TRIPOS>MOLECULE
?
 96 102 0 0 0
SMALL
GASTEIGER

@<TRIPOS>ATOM
      1 N           2.2365    6.7948    0.8255 N.4     1  LIG1        1.0000
      2 N           0.6777    1.3952    5.6492 N.4     2  LIG2        1.0000
      3 C           3.5525    4.6823    0.9051 C.ar    1  LIG1        0.0000
      4 C           4.3368    3.5553    1.1573 C.ar    1  LIG1        0.0000
      5 H           4.2666    3.1198    1.9755 H       1  LIG1        0.0000
      6 C           5.2264    3.0743    0.1934 C.ar    1  LIG1        0.0000
      7 H           5.7388    2.3203    0.3742 H       1  LIG1        0.0000
      8 C           5.3498    3.7049   -1.0181 C.ar    1  LIG1        0.0000
      9 H           5.9622    3.3901   -1.6431 H       1  LIG1        0.0000
     10 C           4.5620    4.8152   -1.3161 C.ar    1  LIG1        0.0000
     11 H           4.6301    5.2361   -2.1417 H       1  LIG1        0.0000
     12 C           3.6701    5.2809   -0.3554 C.ar    1  LIG1        0.0000
     13 C           2.6471    6.3663   -0.5799 C.3     1  LIG1        0.0000
     14 H           1.8637    5.9344   -0.9815 H       1  LIG1        0.0000
     15 C           3.0553    7.4846   -1.5180 C.3     1  LIG1        0.0000
     16 H           3.9190    7.8168   -1.2637 H       1  LIG1        0.0000
     17 H           2.4118    8.1950   -1.4675 H       1  LIG1        0.0000
     18 H           3.0923    7.1501   -2.4177 H       1  LIG1        0.0000
     19 C           2.6323    5.7209    3.2958 C.ar    1  LIG1        0.0000
     20 C           3.8237    5.3505    3.9272 C.ar    1  LIG1        0.0000
     21 H           4.4606    4.8828    3.4368 H       1  LIG1        0.0000
     22 C           4.0973    5.6511    5.2578 C.ar    1  LIG1        0.0000
     23 H           4.8982    5.3754    5.6412 H       1  LIG1        0.0000
     24 C           3.1810    6.3583    6.0101 C.ar    1  LIG1        0.0000
     25 H           3.3563    6.5530    6.9029 H       1  LIG1        0.0000
     26 C           2.0047    6.7728    5.4271 C.ar    1  LIG1        0.0000
     27 H           1.3899    7.2645    5.9224 H       1  LIG1        0.0000
     28 C           1.7352    6.4600    4.1023 C.ar    1  LIG1        0.0000
     29 H           0.9327    6.7471    3.7295 H       1  LIG1        0.0000
     30 C           0.9807    4.4705    1.4896 C.ar    1  LIG1        0.0000
     31 C          -0.0950    4.4357    2.3842 C.ar    1  LIG1        0.0000
     32 H          -0.0443    4.9409    3.1629 H       1  LIG1        0.0000
     33 C          -1.2370    3.6762    2.1522 C.ar    1  LIG1        0.0000
     34 H          -1.9385    3.6970    2.7626 H       1  LIG1        0.0000
     35 C          -1.3333    2.8945    1.0254 C.ar    1  LIG1        0.0000
     36 H          -2.0900    2.3751    0.8738 H       1  LIG1        0.0000
     37 C          -0.2971    2.8920    0.1296 C.ar    1  LIG1        0.0000
     38 H          -0.3560    2.3751   -0.6407 H       1  LIG1        0.0000
     39 C           0.8419    3.6533    0.3612 C.ar    1  LIG1        0.0000
     40 H           1.5367    3.6190   -0.2561 H       1  LIG1        0.0000
     41 C           0.8836    7.4024    0.7928 C.3     1  LIG1        0.0000
     42 H           0.6234    7.6526    1.6829 H       1  LIG1        0.0000
     43 H           0.2556    6.7653    0.4432 H       1  LIG1        0.0000
     44 H           0.8959    8.1817    0.2310 H       1  LIG1        0.0000
     45 C           3.2025    7.8022    1.3598 C.3     1  LIG1        0.0000
     46 H           3.1869    8.5848    0.8048 H       1  LIG1        0.0000
     47 H           4.0865    7.4287    1.3620 H       1  LIG1        0.0000
     48 H           2.9534    8.0407    2.2557 H       1  LIG1        0.0000
     49 C          -0.3778   -0.7561    4.9662 C.ar    2  LIG2        0.0000
     50 C          -0.8811   -2.0570    4.8227 C.ar    2  LIG2        0.0000
     51 H          -1.4389   -2.4099    5.4782 H       2  LIG2        0.0000
     52 C          -0.5517   -2.8287    3.7030 C.ar    2  LIG2        0.0000
     53 H          -0.8767   -3.6970    3.6281 H       2  LIG2        0.0000
     54 C           0.2558   -2.3064    2.7046 C.ar    2  LIG2        0.0000
     55 H           0.4841   -2.8295    1.9703 H       2  LIG2        0.0000
     56 C           0.7260   -1.0013    2.7978 C.ar    2  LIG2        0.0000
     57 H           1.2458   -0.6369    2.1187 H       2  LIG2        0.0000
     58 C           0.4049   -0.2491    3.9274 C.ar    2  LIG2        0.0000
     59 C           0.7949    1.2020    4.1393 C.3     2  LIG2        0.0000
     60 H           0.0961    1.7498    3.7253 H       2  LIG2        0.0000
     61 C           2.1175    1.6257    3.5184 C.3     2  LIG2        0.0000
     62 H           2.8033    1.0034    3.7713 H       2  LIG2        0.0000
     63 H           2.3504    2.5028    3.8298 H       2  LIG2        0.0000
     64 H           2.0326    1.6387    2.5619 H       2  LIG2        0.0000
     65 C          -0.3895   -0.1093    7.6544 C.ar    2  LIG2        0.0000
     66 C          -0.0740   -1.4299    7.9907 C.ar    2  LIG2        0.0000
     67 H          -0.0192   -2.0599    7.3095 H       2  LIG2        0.0000
     68 C           0.1608   -1.8438    9.2968 C.ar    2  LIG2        0.0000
     69 H           0.3592   -2.7350    9.4731 H       2  LIG2        0.0000
     70 C           0.1001   -0.9329   10.3304 C.ar    2  LIG2        0.0000
     71 H           0.2529   -1.2041   11.2062 H       2  LIG2        0.0000
     72 C          -0.1925    0.3898   10.0473 C.ar    2  LIG2        0.0000
     73 H          -0.2243    1.0134   10.7358 H       2  LIG2        0.0000
     74 C          -0.4377    0.7896    8.7406 C.ar    2  LIG2        0.0000
     75 H          -0.6412    1.6818    8.5753 H       2  LIG2        0.0000
     76 C          -2.0583    1.1068    5.8428 C.ar    2  LIG2        0.0000
     77 C          -2.9232    1.5416    6.8604 C.ar    2  LIG2        0.0000
     78 H          -2.6620    1.4231    7.7453 H       2  LIG2        0.0000
     79 C          -4.1490    2.1391    6.6060 C.ar    2  LIG2        0.0000
     80 H          -4.6891    2.4082    7.3136 H       2  LIG2        0.0000
     81 C          -4.5694    2.3356    5.3068 C.ar    2  LIG2        0.0000
     82 H          -5.3820    2.7532    5.1312 H       2  LIG2        0.0000
     83 C          -3.7696    1.9055    4.2772 C.ar    2  LIG2        0.0000
     84 H          -4.0475    2.0218    3.3971 H       2  LIG2        0.0000
     85 C          -2.5457    1.2970    4.5402 C.ar    2  LIG2        0.0000
     86 H          -2.0300    1.0051    3.8235 H       2  LIG2        0.0000
     87 C           0.4573    2.8357    5.9526 C.3     2  LIG2        0.0000
     88 H           0.3579    2.9506    6.9008 H       2  LIG2        0.0000
     89 H          -0.3378    3.1380    5.5085 H       2  LIG2        0.0000
     90 H           1.2093    3.3470    5.6454 H       2  LIG2        0.0000
     91 C           1.9390    0.9543    6.3134 C.3     2  LIG2        0.0000
     92 H           2.6750    1.4745    5.9799 H       2  LIG2        0.0000
     93 H           2.0920    0.0249    6.1252 H       2  LIG2        0.0000
     94 H           1.8623    1.0797    7.2624 H       2  LIG2        0.0000
     95 B           2.3419    5.3414    1.7458 B       1  LIG1        0.0000
     96 B          -0.6307    0.3501    6.1132 B       2  LIG2        0.0000
@<TRIPOS>BOND
     1    18    15    1
     2    11    10    1
     3     9     8    1
     4    15    17    1
     5    15    16    1
     6    15    13    1
     7    10     8   ar
     8    10    12   ar
     9     8     6   ar
    10    14    13    1
    11    38    37    1
    12    13    12    1
    13    13     1    1
    14    12     3   ar
    15    40    39    1
    16    37    39   ar
    17    37    35   ar
    18     6     7    1
    19     6     4   ar
    20    44    41    1
    21    39    30   ar
    22    43    41    1
    23    41     1    1
    24    41    42    1
    25    46    45    1
    26     1    45    1
    27     1    95    1
    28    36    35    1
    29     3     4   ar
    30     3    95    1
    31    35    33   ar
    32     4     5    1
    33    45    47    1
    34    45    48    1
    35    30    95    1
    36    30    31   ar
    37    95    19    1
    38    55    54    1
    39    57    56    1
    40    33    31   ar
    41    33    34    1
    42    31    32    1
    43    64    61    1
    44    54    56   ar
    45    54    52   ar
    46    56    58   ar
    47    19    20   ar
    48    19    28   ar
    49    84    83    1
    50    21    20    1
    51    61    62    1
    52    61    63    1
    53    61    59    1
    54    53    52    1
    55    52    50   ar
    56    60    59    1
    57    29    28    1
    58    86    85    1
    59    20    22   ar
    60    58    59    1
    61    58    49   ar
    62    28    26   ar
    63    59     2    1
    64    83    85   ar
    65    83    81   ar
    66    85    76   ar
    67    50    49   ar
    68    50    51    1
    69    49    96    1
    70    82    81    1
    71    22    23    1
    72    22    24   ar
    73    81    79   ar
    74    26    27    1
    75    26    24   ar
    76    89    87    1
    77    90    87    1
    78     2    87    1
    79     2    96    1
    80     2    91    1
    81    76    96    1
    82    76    77   ar
    83    87    88    1
    84    92    91    1
    85    24    25    1
    86    96    65    1
    87    93    91    1
    88    91    94    1
    89    79    77   ar
    90    79    80    1
    91    77    78    1
    92    67    66    1
    93    65    66   ar
    94    65    74   ar
    95    66    68   ar
    96    75    74    1
    97    74    72   ar
    98    68    69    1
    99    68    70   ar
   100    72    70   ar
   101    72    73    1
   102    70    71    1
