@<TRIPOS>MOLECULE
3-(4-methoxyphenyl)-5-(4-trifluoromethyl)-1-thia-2,4,6-triazinyl
 50 52 0 0 0
SMALL
GASTEIGER

@<TRIPOS>ATOM
      1 S          -1.0390    0.6642    4.5312 S.3     1  LIG1        0.3877
      2 N          -0.9014    2.0195    5.4571 N.2     1  LIG1        0.0575
      3 N          -0.3977    3.3550    3.5005 N.2     1  LIG1        0.0173
      4 N          -0.8654    1.0597    2.9707 N.2     1  LIG1        0.0527
      5 C          -0.6153    3.1201    4.7923 C.2     1  LIG1        0.4625
      6 C          -0.5537    2.3147    2.6411 C.2     1  LIG1        0.3901
      7 C          -0.5345    4.3855    5.6437 C.3     1  LIG1        0.5045
      8 C          -0.4275    2.6044    1.2121 C.ar    1  LIG1        0.0730
      9 C          -0.6453    1.5912    0.2698 C.ar    1  LIG1       -0.0431
     10 H          -0.8512    0.7122    0.5647 H       1  LIG1        0.0627
     11 C          -0.5636    1.8560   -1.0778 C.ar    1  LIG1       -0.0191
     12 H          -0.7036    1.1593   -1.7089 H       1  LIG1        0.0654
     13 C          -0.2749    3.1495   -1.5164 C.ar    1  LIG1        0.1201
     14 C          -0.0478    4.1707   -0.5927 C.ar    1  LIG1       -0.0191
     15 H           0.1583    5.0491   -0.8892 H       1  LIG1        0.0654
     16 C          -0.1269    3.8886    0.7609 C.ar    1  LIG1       -0.0431
     17 H           0.0263    4.5817    1.3925 H       1  LIG1        0.0627
     18 C          -0.1167    4.6369   -3.3718 C.3     1  LIG1        0.0788
     19 H           0.7501    5.0083   -3.1041 H       1  LIG1        0.0660
     20 H          -0.8372    5.1934   -3.0093 H       1  LIG1        0.0660
     21 H          -0.1775    4.6212   -4.3498 H       1  LIG1        0.0660
     22 O          -0.2407    3.3086   -2.8655 O.3     1  LIG1       -0.4951
     23 F           0.6985    4.8886    5.6071 F       1  LIG1       -0.1596
     24 F          -1.3697    5.3105    5.1843 F       1  LIG1       -0.1596
     25 F          -0.8340    4.1729    6.9158 F       1  LIG1       -0.1596
     26 S           1.4079   -0.2462    4.9030 S.3     2  LIG2        0.3877
     27 N           1.8040    0.7968    6.1074 N.2     2  LIG2        0.0575
     28 N           2.8258    2.3228    4.5431 N.2     2  LIG2        0.0173
     29 N           2.0060    0.3175    3.4937 N.2     2  LIG2        0.0527
     30 C           2.4595    1.8782    5.7356 C.2     2  LIG2        0.4625
     31 C           2.5543    1.5336    3.4650 C.2     2  LIG2        0.3901
     32 C           2.8900    2.7432    6.9233 C.3     2  LIG2        0.5045
     33 C           2.9013    2.0907    2.1570 C.ar    2  LIG2        0.0730
     34 C           2.6927    1.3641    0.9832 C.ar    2  LIG2       -0.0431
     35 H           2.3855    0.4672    1.0400 H       2  LIG2        0.0627
     36 C           2.9240    1.9228   -0.2606 C.ar    2  LIG2       -0.0191
     37 H           2.7823    1.4140   -1.0494 H       2  LIG2        0.0654
     38 C           3.3676    3.2411   -0.3425 C.ar    2  LIG2        0.1201
     39 C           3.6098    3.9726    0.8240 C.ar    2  LIG2       -0.0191
     40 H           3.9319    4.8649    0.7650 H       2  LIG2        0.0654
     41 C           3.3835    3.4055    2.0573 C.ar    2  LIG2       -0.0431
     42 H           3.5547    3.9066    2.8464 H       2  LIG2        0.0627
     43 C           3.4113    3.1839   -2.7354 C.3     2  LIG2        0.0788
     44 H           2.4810    2.8833   -2.8050 H       2  LIG2        0.0660
     45 H           4.0073    2.4055   -2.7463 H       2  LIG2        0.0660
     46 H           3.6232    3.7690   -3.4926 H       2  LIG2        0.0660
     47 O           3.5910    3.9069   -1.5061 O.3     2  LIG2       -0.4951
     48 F           3.3329    3.9290    6.5580 F       2  LIG2       -0.1596
     49 F           3.8664    2.1353    7.6081 F       2  LIG2       -0.1596
     50 F           1.8797    2.9181    7.7755 F       2  LIG2       -0.1596
@<TRIPOS>BOND
     1    21    18    1
     2    46    43    1
     3    18    19    1
     4    18    20    1
     5    18    22    1
     6    22    13    1
     7    44    43    1
     8    45    43    1
     9    43    47    1
    10    12    11    1
    11    13    11   ar
    12    13    14   ar
    13    47    38    1
    14    11     9   ar
    15    37    36    1
    16    15    14    1
    17    14    16   ar
    18    38    36   ar
    19    38    39   ar
    20    36    34   ar
    21     9    10    1
    22     9     8   ar
    23    16     8   ar
    24    16    17    1
    25    40    39    1
    26    39    41   ar
    27    34    35    1
    28    34    33   ar
    29     8     6    1
    30    41    33   ar
    31    41    42    1
    32    33    31    1
    33     6     4    2
    34     6     3    1
    35     4     1    1
    36    31    29    2
    37    31    28    1
    38    29    26    1
    39     3     5    2
    40     1     2    2
    41    28    30    2
    42     5     2    1
    43     5     7    1
    44    26    27    2
    45    24     7    1
    46    23     7    1
    47     7    25    1
    48    30    27    1
    49    30    32    1
    50    48    32    1
    51    32    49    1
    52    32    50    1
