@<TRIPOS>MOLECULE
3-Bromo-4-(2-bromophenyl)pyridine
 21 22 0 0 0
SMALL
GASTEIGER

@<TRIPOS>ATOM
      1 C          -5.1536    1.4866    6.7748 C.ar    1  LIG1        0.0437
      2 C          -5.1204    1.7523    5.4228 C.ar    1  LIG1        0.0421
      3 H          -4.3748    1.4834    4.9361 H       1  LIG1        0.0841
      4 C          -7.1494    2.7525    5.5052 C.ar    1  LIG1        0.0282
      5 H          -7.8480    3.1821    5.0666 H       1  LIG1        0.0830
      6 C          -7.2639    2.5492    6.8602 C.ar    1  LIG1       -0.0348
      7 H          -8.0231    2.8345    7.3154 H       1  LIG1        0.0639
      8 BR         -3.7254    0.5353    7.5641 Br      1  LIG1       -0.0481
      9 N          -6.1017    2.3721    4.7851 N.ar    1  LIG1       -0.2621
     10 C          -6.2895    1.6878    9.0128 C.ar    1  LIG1       -0.0028
     11 C          -5.7987    2.6082    9.9400 C.ar    1  LIG1        0.0256
     12 C          -5.8091    2.3502   11.2871 C.ar    1  LIG1       -0.0472
     13 H          -5.4579    2.9711   11.8846 H       1  LIG1        0.0629
     14 C          -6.3453    1.1631   11.7541 C.ar    1  LIG1       -0.0607
     15 H          -6.3732    0.9947   12.6686 H       1  LIG1        0.0618
     16 C          -6.8372    0.2317   10.8721 C.ar    1  LIG1       -0.0611
     17 H          -7.1903   -0.5684   11.1870 H       1  LIG1        0.0618
     18 C          -6.8029    0.4897    9.4985 C.ar    1  LIG1       -0.0529
     19 H          -7.1276   -0.1465    8.9029 H       1  LIG1        0.0624
     20 C          -6.2343    1.9130    7.5421 C.ar    1  LIG1        0.0000
     21 BR         -5.0964    4.2591    9.3243 Br      1  LIG1       -0.0497
@<TRIPOS>BOND
     1     9     2   ar
     2     9     4   ar
     3     3     2    1
     4     5     4    1
     5     2     1   ar
     6     4     6   ar
     7     1    20   ar
     8     1     8    1
     9     6     7    1
    10     6    20   ar
    11    20    10    1
    12    19    18    1
    13    10    18   ar
    14    10    11   ar
    15    21    11    1
    16    18    16   ar
    17    11    12   ar
    18    16    17    1
    19    16    14   ar
    20    12    14   ar
    21    12    13    1
    22    14    15    1
