@<TRIPOS>MOLECULE
?
 17 17 0 0 0
SMALL
GASTEIGER

@<TRIPOS>ATOM
      1 CL          2.4247    3.4348    5.7629 Cl      1  LIG1       -0.1203
      2 C           3.5759    1.0454    5.1566 C.ar    1  LIG1       -0.0026
      3 N           2.6352    0.4208    7.3944 N.pl3   1  LIG1        0.0567
      4 O           1.7547   -0.2433    7.9322 O.2     1  LIG1       -0.1261
      5 O           3.2458    1.3128    7.9566 O.2     1  LIG1       -0.1261
      6 C           2.9712    0.1015    5.9904 C.ar    1  LIG1        0.1305
      7 C           3.8539    0.6209    3.8551 C.ar    1  LIG1       -0.0553
      8 H           4.2453    1.2182    3.2589 H       1  LIG1        0.0621
      9 C           2.9729   -1.5673    4.2857 C.ar    1  LIG1       -0.0596
     10 H           2.7842   -2.4306    3.9948 H       1  LIG1        0.0618
     11 C           3.9229    2.4617    5.5160 C.3     1  LIG1        0.0498
     12 H           4.4500    2.8560    4.8044 H       1  LIG1        0.0479
     13 H           4.4544    2.4709    6.3272 H       1  LIG1        0.0479
     14 C           2.6681   -1.1838    5.5746 C.ar    1  LIG1       -0.0312
     15 H           2.2645   -1.7837    6.1595 H       1  LIG1        0.0640
     16 C           3.5649   -0.6603    3.4253 C.ar    1  LIG1       -0.0613
     17 H           3.7666   -0.9128    2.5532 H       1  LIG1        0.0618
@<TRIPOS>BOND
     1    17    16    1
     2     8     7    1
     3    16     7   ar
     4    16     9   ar
     5     7     2   ar
     6    10     9    1
     7     9    14   ar
     8    12    11    1
     9     2    11    1
    10     2     6   ar
    11    11     1    1
    12    11    13    1
    13    14     6   ar
    14    14    15    1
    15     6     3    1
    16     3     4    2
    17     3     5    2
