@<TRIPOS>MOLECULE
1,1,3,3-tetraphenyl-1,3-diphospha-2-(2-pyridyl)-4-keto-5-  carboxymethylcyclopentadiene
 67 72 0 0 0
SMALL
GASTEIGER

@<TRIPOS>ATOM
      1 P          -0.8295    6.5887    5.2688 P.3     1  LIG1        0.2182
      2 C          -1.6393    7.9254    4.3766 C.ar    1  LIG1        0.1144
      3 C          -1.3609    8.1632    3.0305 C.ar    1  LIG1       -0.0185
      4 H          -0.6886    7.6640    2.5814 H       1  LIG1        0.0657
      5 C          -2.0753    9.1382    2.3597 C.ar    1  LIG1       -0.0580
      6 H          -1.8895    9.3024    1.4425 H       1  LIG1        0.0619
      7 C          -3.0429    9.8703    2.9887 C.ar    1  LIG1       -0.0615
      8 H          -3.5386   10.5236    2.5096 H       1  LIG1        0.0618
      9 C          -3.2856    9.6525    4.3021 C.ar    1  LIG1       -0.0580
     10 H          -3.9312   10.1835    4.7548 H       1  LIG1        0.0619
     11 C          -2.6114    8.6759    4.9865 C.ar    1  LIG1       -0.0185
     12 H          -2.8200    8.5167    5.8991 H       1  LIG1        0.0657
     13 C           0.8578    6.4780    4.6457 C.ar    1  LIG1        0.1144
     14 C           1.3817    5.2501    4.2766 C.ar    1  LIG1       -0.0185
     15 H           0.8408    4.4711    4.3294 H       1  LIG1        0.0657
     16 C           2.6803    5.1529    3.8349 C.ar    1  LIG1       -0.0580
     17 H           3.0324    4.3069    3.5849 H       1  LIG1        0.0619
     18 C           3.4647    6.2669    3.7531 C.ar    1  LIG1       -0.0615
     19 H           4.3629    6.1899    3.4513 H       1  LIG1        0.0618
     20 C           2.9699    7.4932    4.1012 C.ar    1  LIG1       -0.0580
     21 H           3.5240    8.2621    4.0394 H       1  LIG1        0.0619
     22 C           1.6322    7.6205    4.5557 C.ar    1  LIG1       -0.0185
     23 H           1.2780    8.4698    4.7920 H       1  LIG1        0.0657
     24 C          -1.0795    6.5668    6.9681 C.3     1  LIG1        0.3309
     25 C          -0.5801    7.6104    7.8289 C.ar    1  LIG1        0.1331
     26 C          -0.7494    7.6322    9.2250 C.ar    1  LIG1       -0.0320
     27 H          -1.2473    6.9487    9.6568 H       1  LIG1        0.0638
     28 C          -0.1939    8.6407    9.9549 C.ar    1  LIG1       -0.0584
     29 H          -0.2963    8.6491   10.8993 H       1  LIG1        0.0619
     30 C           0.5073    9.6408    9.3432 C.ar    1  LIG1       -0.0436
     31 H           0.9002   10.3460    9.8440 H       1  LIG1        0.0633
     32 C           0.6228    9.5855    7.9788 C.ar    1  LIG1        0.0282
     33 H           1.1031   10.2807    7.5434 H       1  LIG1        0.0829
     34 N           0.0958    8.6078    7.2189 N.ar    1  LIG1       -0.2513
     35 P          -2.0020    5.1901    7.4170 P.3     1  LIG1        0.1767
     36 C          -1.1581    4.1160    8.5978 C.ar    1  LIG1        0.1110
     37 C           0.2206    4.2584    8.7660 C.ar    1  LIG1       -0.0186
     38 H           0.6922    4.9402    8.3024 H       1  LIG1        0.0657
     39 C           0.8925    3.3990    9.6131 C.ar    1  LIG1       -0.0580
     40 H           1.8285    3.5012    9.7377 H       1  LIG1        0.0619
     41 C           0.2282    2.4039   10.2730 C.ar    1  LIG1       -0.0615
     42 H           0.7038    1.8193   10.8530 H       1  LIG1        0.0618
     43 C          -1.1022    2.2481   10.1031 C.ar    1  LIG1       -0.0580
     44 H          -1.5552    1.5395   10.5430 H       1  LIG1        0.0619
     45 C          -1.8121    3.1226    9.2868 C.ar    1  LIG1       -0.0186
     46 H          -2.7538    3.0321    9.2041 H       1  LIG1        0.0657
     47 C          -3.6255    5.5901    8.1179 C.ar    1  LIG1        0.1110
     48 C          -4.5952    6.0441    7.2362 C.ar    1  LIG1       -0.0186
     49 H          -4.4217    6.0374    6.3018 H       1  LIG1        0.0657
     50 C          -5.8233    6.5115    7.7089 C.ar    1  LIG1       -0.0580
     51 H          -6.4728    6.8482    7.1035 H       1  LIG1        0.0619
     52 C          -6.0826    6.4813    9.0523 C.ar    1  LIG1       -0.0615
     53 H          -6.9202    6.7879    9.3768 H       1  LIG1        0.0618
     54 C          -5.1416    6.0106    9.9349 C.ar    1  LIG1       -0.0580
     55 H          -5.3333    5.9805   10.8648 H       1  LIG1        0.0619
     56 C          -3.9078    5.5767    9.4650 C.ar    1  LIG1       -0.0186
     57 H          -3.2522    5.2685   10.0794 H       1  LIG1        0.0657
     58 C          -1.6559    5.0155    4.8075 C.2     1  LIG1        0.3461
     59 O          -1.6897    4.6629    3.5640 O.2     1  LIG1       -0.2414
     60 C          -2.2001    4.3672    5.8728 C.2     1  LIG1        0.1822
     61 C          -2.8326    3.0020    5.7710 C.3     1  LIG1        0.1105
     62 H          -3.1492    2.7356    6.6699 H       1  LIG1        0.0463
     63 H          -2.1368    2.3537    5.4956 H       1  LIG1        0.0463
     64 C          -3.9952    2.8998    4.8020 C.2     1  LIG1        0.3126
     65 O          -3.8209    3.3465    3.5913 O.3     1  LIG1       -0.4803
     66 H          -2.9231    3.7524    3.3995 H       1  LIG1        0.2951
     67 O          -5.0456    2.3989    5.1465 O.2     1  LIG1       -0.2505
@<TRIPOS>BOND
     1     6     5    1
     2     5     7   ar
     3     5     3   ar
     4     8     7    1
     5     4     3    1
     6     7     9   ar
     7     3     2   ar
     8    66    65    1
     9    19    18    1
    10    59    58    1
    11    17    16    1
    12    65    64    1
    13    18    16   ar
    14    18    20   ar
    15    16    14   ar
    16    21    20    1
    17    20    22   ar
    18    14    15    1
    19    14    13   ar
    20     9    10    1
    21     9    11   ar
    22     2    11   ar
    23     2     1    1
    24    22    13   ar
    25    22    23    1
    26    13     1    1
    27    64    67    2
    28    64    61    1
    29    58     1    1
    30    58    60    2
    31    11    12    1
    32     1    24    1
    33    63    61    1
    34    61    60    1
    35    61    62    1
    36    60    35    1
    37    49    48    1
    38    24    35    1
    39    24    25    1
    40    51    50    1
    41    34    25   ar
    42    34    32   ar
    43    48    50   ar
    44    48    47   ar
    45    35    47    1
    46    35    36    1
    47    33    32    1
    48    50    52   ar
    49    25    26   ar
    50    32    30   ar
    51    47    56   ar
    52    38    37    1
    53    36    37   ar
    54    36    45   ar
    55    37    39   ar
    56    52    53    1
    57    52    54   ar
    58    46    45    1
    59    26    27    1
    60    26    28   ar
    61    45    43   ar
    62    30    31    1
    63    30    28   ar
    64    56    54   ar
    65    56    57    1
    66    39    40    1
    67    39    41   ar
    68    54    55    1
    69    28    29    1
    70    43    41   ar
    71    43    44    1
    72    41    42    1
