@<TRIPOS>MOLECULE
?
 43 46 0 0 0
SMALL
GASTEIGER

@<TRIPOS>ATOM
      1 C           3.8383    3.6338    3.5528 C.ar    1  LIG1        0.0576
      2 C           2.6331    4.1467    3.9492 C.ar    1  LIG1       -0.0430
      3 H           2.0704    3.7187    4.5526 H       1  LIG1        0.0630
      4 C           2.3291    5.3813    3.3564 C.ar    1  LIG1       -0.0457
      5 H           1.5447    5.8529    3.5247 H       1  LIG1        0.0629
      6 C           3.3057    5.8196    2.5043 C.ar    1  LIG1        0.0266
      7 C           3.3896    7.0818    1.8020 C.ar    1  LIG1        0.0262
      8 C           4.4455    7.6555    1.1910 C.ar    1  LIG1       -0.0461
      9 H           5.2657    7.2309    1.0849 H       1  LIG1        0.0629
     10 C           4.1867    8.9658    0.7264 C.ar    1  LIG1       -0.0487
     11 H           4.8140    9.4833    0.2751 H       1  LIG1        0.0627
     12 C           2.9381    9.3903    1.0041 C.ar    1  LIG1        0.0156
     13 C           2.3169   10.7259    0.7197 C.3     1  LIG1        0.0754
     14 H           2.9685   11.2835    0.2647 H       1  LIG1        0.0612
     15 H           1.5667   10.5997    0.1177 H       1  LIG1        0.0612
     16 C           4.3828    2.0160    5.8422 C.ar    1  LIG1        0.0204
     17 C           4.3746    3.1427    6.6494 C.ar    1  LIG1       -0.0507
     18 H           4.4134    3.9872    6.2621 H       1  LIG1        0.0625
     19 C           4.3069    3.0245    8.0238 C.ar    1  LIG1       -0.0611
     20 H           4.2963    3.7864    8.5566 H       1  LIG1        0.0618
     21 C           4.2564    1.7888    8.6019 C.ar    1  LIG1       -0.0617
     22 H           4.2143    1.7131    9.5273 H       1  LIG1        0.0618
     23 C           4.2687    0.6598    7.8238 C.ar    1  LIG1       -0.0611
     24 H           4.2350   -0.1801    8.2226 H       1  LIG1        0.0618
     25 C           4.3304    0.7665    6.4468 C.ar    1  LIG1       -0.0507
     26 H           4.3362   -0.0023    5.9230 H       1  LIG1        0.0625
     27 C           6.3011    2.1892    3.6813 C.ar    1  LIG1        0.0204
     28 C           6.8998    1.2013    2.9103 C.ar    1  LIG1       -0.0507
     29 H           6.3886    0.5060    2.5661 H       1  LIG1        0.0625
     30 C           8.2558    1.2530    2.6554 C.ar    1  LIG1       -0.0611
     31 H           8.6544    0.5875    2.1439 H       1  LIG1        0.0618
     32 C           9.0217    2.2833    3.1536 C.ar    1  LIG1       -0.0617
     33 H           9.9323    2.3177    2.9693 H       1  LIG1        0.0618
     34 C           8.4368    3.2644    3.9263 C.ar    1  LIG1       -0.0611
     35 H           8.9547    3.9585    4.2653 H       1  LIG1        0.0618
     36 C           7.0890    3.2162    4.1956 C.ar    1  LIG1       -0.0507
     37 H           6.7006    3.8748    4.7256 H       1  LIG1        0.0625
     38 H           2.6539   11.7150    2.3187 H       1  LIG1        0.2099
     39 O           3.9307    0.8694    3.4081 O.2     1  LIG1       -0.3060
     40 O           1.8674   11.4003    1.8638 O.3     1  LIG1       -0.3899
     41 P           4.5400    2.0678    4.0456 P.3     1  LIG1        0.1778
     42 S           4.5995    4.6877    2.4310 S.2     1  LIG1       -0.0843
     43 S           2.0392    8.1550    1.7989 S.2     1  LIG1       -0.0904
@<TRIPOS>BOND
     1    15    13    1
     2    14    13    1
     3    11    10    1
     4    13    12    1
     5    13    40    1
     6    10    12   ar
     7    10     8   ar
     8    12    43   ar
     9     9     8    1
    10     8     7   ar
    11    43     7   ar
    12     7     6    1
    13    40    38    1
    14    31    30    1
    15    42     6   ar
    16    42     1   ar
    17     6     4   ar
    18    29    28    1
    19    30    28   ar
    20    30    32   ar
    21    28    27   ar
    22    33    32    1
    23    32    34   ar
    24     4     5    1
    25     4     2   ar
    26    39    41    2
    27     1     2   ar
    28     1    41    1
    29    27    41    1
    30    27    36   ar
    31    34    36   ar
    32    34    35    1
    33     2     3    1
    34    41    16    1
    35    36    37    1
    36    16    25   ar
    37    16    17   ar
    38    26    25    1
    39    18    17    1
    40    25    23   ar
    41    17    19   ar
    42    23    24    1
    43    23    21   ar
    44    19    20    1
    45    19    21   ar
    46    21    22    1
