@<TRIPOS>MOLECULE
?
 52 56 0 0 0
SMALL
GASTEIGER

@<TRIPOS>ATOM
      1 N          16.2390    5.3646   -3.1917 N.ar    1  LIG1       -0.2447
      2 C          15.7820    5.1419   -1.9779 C.ar    1  LIG1        0.0785
      3 C          16.6211    4.8619   -0.8628 C.ar    1  LIG1       -0.0366
      4 H          16.2478    4.7107   -0.0024 H       1  LIG1        0.0637
      5 C          17.9713    4.8142   -1.0508 C.ar    1  LIG1       -0.0506
      6 H          18.5455    4.6193   -0.3189 H       1  LIG1        0.0625
      7 C          18.5184    5.0530   -2.3305 C.ar    1  LIG1        0.0040
      8 C          19.9082    5.0410   -2.6197 C.ar    1  LIG1       -0.0523
      9 H          20.5334    4.8292   -1.9363 H       1  LIG1        0.0624
     10 C          20.3483    5.3345   -3.8813 C.ar    1  LIG1       -0.0576
     11 H          21.2814    5.3459   -4.0600 H       1  LIG1        0.0619
     12 C          19.4362    5.6200   -4.9220 C.ar    1  LIG1       -0.0180
     13 H          19.7583    5.8241   -5.7918 H       1  LIG1        0.0655
     14 C          18.0868    5.6040   -4.6767 C.ar    1  LIG1        0.1427
     15 O          17.2083    5.8371   -5.6821 O.3     1  LIG1       -0.5046
     16 C          17.6008    5.3342   -3.3720 C.ar    1  LIG1        0.1126
     17 C          14.2563    5.1476   -1.8071 C.3     1  LIG1        0.1374
     18 H          13.9372    4.1996   -1.7835 H       1  LIG1        0.0752
     19 N          13.5436    5.8434   -2.8516 N.pl3   1  LIG1       -0.3222
     20 C          13.5260    7.2255   -2.8344 C.ar    1  LIG1        0.0331
     21 C          13.0311    7.9372   -3.9424 C.ar    1  LIG1       -0.0405
     22 H          12.7773    7.4657   -4.7276 H       1  LIG1        0.0636
     23 C          12.9105    9.3143   -3.9033 C.ar    1  LIG1       -0.0600
     24 H          12.5636    9.7811   -4.6540 H       1  LIG1        0.0618
     25 C          13.7830    9.3247   -1.6699 C.ar    1  LIG1       -0.0555
     26 H          14.0471    9.8054   -0.8941 H       1  LIG1        0.0621
     27 C          13.8911    7.9382   -1.6817 C.ar    1  LIG1       -0.0107
     28 C          14.3688    7.1876   -0.4592 C.3     1  LIG1        0.0497
     29 H          15.3560    7.2402   -0.4051 H       1  LIG1        0.0494
     30 H          13.9947    7.6113    0.3542 H       1  LIG1        0.0494
     31 N          13.9536    5.7723   -0.5117 N.3     1  LIG1       -0.1464
     32 S          12.5370    5.3933    0.2340 S.O2    1  LIG1        0.0631
     33 O          12.6924    5.7684    1.6135 O.2     1  LIG1       -0.1528
     34 O          12.2428    4.0305   -0.1011 O.2     1  LIG1       -0.1528
     35 C          11.2808    6.4342   -0.4396 C.ar    1  LIG1        0.1056
     36 C          10.5666    6.0097   -1.5555 C.ar    1  LIG1       -0.0351
     37 H          10.6933    5.1361   -1.9058 H       1  LIG1        0.0637
     38 C           9.6664    6.8819   -2.1471 C.ar    1  LIG1       -0.0570
     39 H           9.1544    6.5878   -2.8908 H       1  LIG1        0.0621
     40 C           9.4967    8.1837   -1.6754 C.ar    1  LIG1       -0.0503
     41 C           8.5890    9.1616   -2.3767 C.3     1  LIG1       -0.0397
     42 H           8.1739    8.7262   -3.1494 H       1  LIG1        0.0278
     43 H           9.1115    9.9338   -2.6784 H       1  LIG1        0.0278
     44 H           7.8912    9.4628   -1.7569 H       1  LIG1        0.0278
     45 C          11.0939    7.7041    0.0791 C.ar    1  LIG1       -0.0351
     46 H          11.5718    7.9796    0.8534 H       1  LIG1        0.0637
     47 C          13.2962   10.0195   -2.7686 C.ar    1  LIG1       -0.0613
     48 H          13.2267   10.9659   -2.7451 H       1  LIG1        0.0618
     49 C          10.2036    8.5749   -0.5391 C.ar    1  LIG1       -0.0570
     50 H          10.0756    9.4471   -0.1826 H       1  LIG1        0.0621
     51 H          16.4973    5.7956   -5.3287 H       1  LIG1        0.2922
     52 H          13.6680    5.5243   -3.5969 H       1  LIG1        0.1480
@<TRIPOS>BOND
     1    13    12    1
     2    15    51    1
     3    15    14    1
     4    12    14   ar
     5    12    10   ar
     6    22    21    1
     7    14    16   ar
     8    24    23    1
     9    11    10    1
    10    21    23   ar
    11    21    20   ar
    12    23    47   ar
    13    10     8   ar
    14    52    19    1
    15    16     1   ar
    16    16     7   ar
    17     1     2   ar
    18    42    41    1
    19    39    38    1
    20    19    20    1
    21    19    17    1
    22    20    27   ar
    23    47    48    1
    24    47    25   ar
    25    43    41    1
    26     8     7   ar
    27     8     9    1
    28    41    44    1
    29    41    40    1
    30     7     5   ar
    31    38    40   ar
    32    38    36   ar
    33     2    17    1
    34     2     3   ar
    35    37    36    1
    36    17    18    1
    37    17    31    1
    38    27    25   ar
    39    27    28    1
    40    40    49   ar
    41    25    26    1
    42    36    35   ar
    43     5     3   ar
    44     5     6    1
    45     3     4    1
    46    49    50    1
    47    49    45   ar
    48    31    28    1
    49    31    32    1
    50    28    29    1
    51    28    30    1
    52    35    45   ar
    53    35    32    1
    54    34    32    2
    55    45    46    1
    56    32    33    2
