@<TRIPOS>MOLECULE
2,3-(i-PrS)2C6H3NHCO-t-Bu
 48 48 0 0 0
SMALL
GASTEIGER

@<TRIPOS>ATOM
      1 S           8.0195    8.6394   13.9911 S.3     1  LIG1       -0.1212
      2 S           8.8406   10.2415   11.4671 S.3     1  LIG1       -0.1194
      3 O           9.0617    7.1730    7.2722 O.2     1  LIG1       -0.2749
      4 N           8.9699    8.6617    8.9741 N.am    1  LIG1       -0.2841
      5 H           9.0593    9.5203    9.1443 H       1  LIG1        0.1549
      6 C           7.7367    7.3674   15.2602 C.3     1  LIG1        0.0043
      7 H           7.0020    6.7601   14.9552 H       1  LIG1        0.0410
      8 C           8.9879    6.5292   15.5559 C.3     1  LIG1       -0.0532
      9 H           9.7891    7.0751   15.4125 H       1  LIG1        0.0240
     10 H           9.0103    5.7525   14.9584 H       1  LIG1        0.0240
     11 H           8.9643    6.2233   16.4864 H       1  LIG1        0.0240
     12 C           7.2712    8.1294   16.4976 C.3     1  LIG1       -0.0532
     13 H           8.0484    8.3739   17.0425 H       1  LIG1        0.0240
     14 H           6.6687    7.5630   17.0234 H       1  LIG1        0.0240
     15 H           6.7960    8.9415   16.2204 H       1  LIG1        0.0240
     16 C          10.5735   10.2869   12.1238 C.3     1  LIG1        0.0043
     17 H          10.5881    9.8172   13.0066 H       1  LIG1        0.0410
     18 C          10.9016   11.7415   12.3517 C.3     1  LIG1       -0.0532
     19 H          11.3057   12.1168   11.5423 H       1  LIG1        0.0240
     20 H          11.5311   11.8211   13.0990 H       1  LIG1        0.0240
     21 H          10.0797   12.2317   12.5652 H       1  LIG1        0.0240
     22 C          11.5707    9.6398   11.2300 C.3     1  LIG1       -0.0532
     23 H          12.4430   10.0697   11.3479 H       1  LIG1        0.0240
     24 H          11.2833    9.7341   10.2979 H       1  LIG1        0.0240
     25 H          11.6426    8.6878   11.4546 H       1  LIG1        0.0240
     26 C           8.1646    7.7541   12.4718 C.ar    1  LIG1        0.0233
     27 C           8.5272    8.4956   11.3313 C.ar    1  LIG1        0.0427
     28 C           8.5848    7.8713   10.0757 C.ar    1  LIG1        0.0480
     29 C           8.2794    6.5110    9.9554 C.ar    1  LIG1       -0.0393
     30 H           8.2966    6.0846    9.1076 H       1  LIG1        0.0636
     31 C           7.9527    5.8002   11.0960 C.ar    1  LIG1       -0.0589
     32 H           7.7568    4.8745   11.0149 H       1  LIG1        0.0618
     33 C           7.9008    6.3848   12.3528 C.ar    1  LIG1       -0.0471
     34 H           7.6901    5.8651   13.1197 H       1  LIG1        0.0629
     35 C           9.2243    8.2966    7.6887 C.2     1  LIG1        0.2226
     36 C           9.7119    9.4282    6.7745 C.3     1  LIG1        0.0389
     37 C          10.6501   10.3892    7.4234 C.3     1  LIG1       -0.0517
     38 H          11.1676    9.9252    8.1134 H       1  LIG1        0.0239
     39 H          10.1373   11.1171    7.8345 H       1  LIG1        0.0239
     40 H          11.2590   10.7577    6.7495 H       1  LIG1        0.0239
     41 C          10.3455    8.8061    5.5337 C.3     1  LIG1       -0.0517
     42 H          11.3009    8.6605    5.6931 H       1  LIG1        0.0239
     43 H          10.2298    9.4089    4.7705 H       1  LIG1        0.0239
     44 H           9.9112    7.9475    5.3425 H       1  LIG1        0.0239
     45 C           8.4805   10.1936    6.2667 C.3     1  LIG1       -0.0517
     46 H           7.7665   10.1424    6.9359 H       1  LIG1        0.0239
     47 H           8.1710    9.7944    5.4270 H       1  LIG1        0.0239
     48 H           8.7197   11.1319    6.1153 H       1  LIG1        0.0239
@<TRIPOS>BOND
     1    43    41    1
     2    44    41    1
     3    47    45    1
     4    41    42    1
     5    41    36    1
     6    48    45    1
     7    45    36    1
     8    45    46    1
     9    40    37    1
    10    36    37    1
    11    36    35    1
    12     3    35    2
    13    37    39    1
    14    37    38    1
    15    35     4   am
    16     4     5    1
    17     4    28    1
    18    30    29    1
    19    29    28   ar
    20    29    31   ar
    21    28    27   ar
    22    24    22    1
    23    32    31    1
    24    31    33   ar
    25    22    23    1
    26    22    25    1
    27    22    16    1
    28    27     2    1
    29    27    26   ar
    30     2    16    1
    31    19    18    1
    32    16    18    1
    33    16    17    1
    34    18    21    1
    35    18    20    1
    36    33    26   ar
    37    33    34    1
    38    26     1    1
    39     1     6    1
    40     7     6    1
    41    10     8    1
    42     6     8    1
    43     6    12    1
    44     9     8    1
    45     8    11    1
    46    15    12    1
    47    12    14    1
    48    12    13    1
