@<TRIPOS>MOLECULE
?
 21 20 0 0 0
SMALL
GASTEIGER

@<TRIPOS>ATOM
      1 I           3.8206    7.3272    6.7628 I       1  LIG1        0.0000
      2 N           2.0538    8.4919    2.9112 N.pl3   2  LIG2       -0.3097
      3 N           2.9415    9.1595    1.0442 N.pl3   2  LIG2       -0.3166
      4 C           1.8488    9.1967    1.8021 C.3     2  LIG2        0.1253
      5 H           1.0458    9.6552    1.5845 H       2  LIG2        0.0746
      6 C           3.3364    7.9523    2.8487 C.2     2  LIG2        0.0078
      7 H           3.7456    7.3902    3.4965 H       2  LIG2        0.0793
      8 C           3.8855    8.3785    1.6945 C.2     2  LIG2        0.0072
      9 H           4.7607    8.1801    1.3820 H       2  LIG2        0.0793
     10 C           1.1023    8.2690    3.9902 C.3     2  LIG2        0.0314
     11 H           0.4367    9.0012    3.9902 H       2  LIG2        0.0507
     12 H           1.5826    8.2964    4.8556 H       2  LIG2        0.0507
     13 C           0.3763    6.9425    3.8707 C.2     2  LIG2       -0.0740
     14 H          -0.1195    6.6551    4.6286 H       2  LIG2        0.0582
     15 C           0.3670    6.1575    2.8289 C.2     2  LIG2       -0.1012
     16 H           0.8476    6.4009    2.0465 H       2  LIG2        0.0532
     17 H          -0.1204    5.3423    2.8526 H       2  LIG2        0.0532
     18 C           3.1106    9.8409   -0.2429 C.3     2  LIG2        0.0020
     19 H           2.2308   10.0608   -0.6139 H       2  LIG2        0.0428
     20 H           3.5893    9.2524   -0.8631 H       2  LIG2        0.0428
     21 H           3.6246   10.6640   -0.1108 H       2  LIG2        0.0428
@<TRIPOS>BOND
     1    20    18    1
     2    19    18    1
     3    18    21    1
     4    18     3    1
     5     3     8    1
     6     3     4    1
     7     9     8    1
     8     5     4    1
     9     8     6    2
    10     4     2    1
    11    16    15    1
    12    15    17    1
    13    15    13    2
    14     6     2    1
    15     6     7    1
    16     2    10    1
    17    13    10    1
    18    13    14    1
    19    11    10    1
    20    10    12    1
