@<TRIPOS>MOLECULE
?
 54 53 0 0 0
SMALL
GASTEIGER

@<TRIPOS>ATOM
      1 C           7.7957    4.1042   -3.3145 C.3     1  LIG1       -0.0493
      2 H           7.9384    3.2304   -3.6848 H       1  LIG1        0.0245
      3 H           7.8643    4.7625   -4.0099 H       1  LIG1        0.0245
      4 H           6.9217    4.1452   -2.9193 H       1  LIG1        0.0245
      5 C           8.8287    4.3762   -2.2674 C.3     1  LIG1        0.0107
      6 H           9.7044    4.3772   -2.6841 H       1  LIG1        0.0461
      7 H           8.6758    5.2601   -1.8977 H       1  LIG1        0.0461
      8 C           9.9256    2.8168   -0.6007 C.2     1  LIG1        0.0074
      9 H          10.8072    2.9528   -0.8624 H       1  LIG1        0.0793
     10 C           9.5069    2.0224    0.3971 C.2     1  LIG1        0.0075
     11 H          10.0424    1.5065    0.9546 H       1  LIG1        0.0793
     12 C           7.7508    2.9446   -0.5172 C.3     1  LIG1        0.1253
     13 H           6.8715    3.1783   -0.7056 H       1  LIG1        0.0746
     14 C           7.2451    1.4399    1.3955 C.3     1  LIG1        0.0247
     15 H           6.8680    2.0954    2.0038 H       1  LIG1        0.0473
     16 H           7.7580    0.8053    1.9208 H       1  LIG1        0.0473
     17 C           6.1277    0.7140    0.6883 C.3     1  LIG1        0.0325
     18 C           4.7853    0.8336    1.0630 C.2     1  LIG1       -0.0429
     19 C           4.3381    1.7275    2.1998 C.3     1  LIG1        0.0355
     20 H           4.7131    2.6141    2.0753 H       1  LIG1        0.0510
     21 H           3.3719    1.8069    2.1837 H       1  LIG1        0.0510
     22 C           4.8195    1.9284    4.6694 C.2     1  LIG1        0.0078
     23 H           4.6806    2.8442    4.7571 H       1  LIG1        0.0793
     24 C           5.1184    1.0719    5.6566 C.2     1  LIG1        0.0075
     25 H           5.2340    1.2837    6.5556 H       1  LIG1        0.0793
     26 C           4.9905   -0.0667    3.7966 C.3     1  LIG1        0.1255
     27 H           4.9900   -0.7688    3.1867 H       1  LIG1        0.0746
     28 C           5.5536   -1.4289    5.8032 C.3     1  LIG1        0.0107
     29 H           5.2813   -2.1840    5.2597 H       1  LIG1        0.0461
     30 H           5.0563   -1.4664    6.6364 H       1  LIG1        0.0461
     31 C           7.0129   -1.5330    6.0956 C.3     1  LIG1       -0.0493
     32 H           7.5097   -1.4554    5.2782 H       1  LIG1        0.0245
     33 H           7.1976   -2.3831    6.5026 H       1  LIG1        0.0245
     34 H           7.2713   -0.8290    6.6940 H       1  LIG1        0.0245
     35 C           3.8256    0.1214    0.3722 C.2     1  LIG1       -0.0604
     36 H           2.9359    0.2073    0.6295 H       1  LIG1        0.0618
     37 F           1.1620   -0.0292    2.2406 F       2  LIG2       -0.1039
     38 F          -0.5698    0.7304    3.4436 F       2  LIG2       -0.1039
     39 F           0.1629   -1.4043    3.7035 F       2  LIG2       -0.1039
     40 F           0.4380    0.1479    5.3250 F       2  LIG2       -0.1039
     41 F           2.1910   -0.6127    4.1331 F       2  LIG2       -0.1039
     42 F           1.4793    1.4883    3.8573 F       2  LIG2       -0.1039
     43 F           6.2384    5.4007    3.4268 F       3  LIG3       -0.1039
     44 F           7.5209    6.9757    2.4392 F       3  LIG3       -0.1039
     45 F           7.2163    5.9805    0.4672 F       3  LIG3       -0.1039
     46 F           5.9234    4.4319    1.4317 F       3  LIG3       -0.1039
     47 F           8.0280    4.7798    2.1742 F       3  LIG3       -0.1039
     48 F           5.4248    6.5968    1.7211 F       3  LIG3       -0.1039
     49 N           5.2223   -0.1744    5.0951 N.pl3   1  LIG1       -0.3137
     50 N           4.7585    1.2043    3.5063 N.pl3   1  LIG1       -0.3094
     51 N           8.1400    2.1183    0.4347 N.pl3   1  LIG1       -0.3126
     52 N           8.8247    3.3874   -1.1622 N.pl3   1  LIG1       -0.3138
     53 P           0.8146    0.0394    3.7907 P.3     2  LIG2        0.6235
     54 P           6.7333    5.6983    1.9570 P.3     3  LIG3        0.6235
@<TRIPOS>BOND
     1     3     1    1
     2     2     1    1
     3     1     4    1
     4     1     5    1
     5     6     5    1
     6     5     7    1
     7     5    52    1
     8    52     8    1
     9    52    12    1
    10     9     8    1
    11    13    12    1
    12     8    10    2
    13    12    51    1
    14    35    36    1
    15    35    18    2
    16    10    51    1
    17    10    11    1
    18    51    14    1
    19    45    54    1
    20    17    18    1
    21    17    14    1
    22    18    19    1
    23    14    16    1
    24    14    15    1
    25    46    54    1
    26    48    54    1
    27    54    47    1
    28    54    44    1
    29    54    43    1
    30    20    19    1
    31    21    19    1
    32    19    50    1
    33    37    53    1
    34    27    26    1
    35    38    53    1
    36    50    26    1
    37    50    22    1
    38    39    53    1
    39    53    42    1
    40    53    41    1
    41    53    40    1
    42    26    49    1
    43    22    23    1
    44    22    24    2
    45    49    24    1
    46    49    28    1
    47    29    28    1
    48    32    31    1
    49    24    25    1
    50    28    31    1
    51    28    30    1
    52    31    33    1
    53    31    34    1
