@<TRIPOS>MOLECULE
C12 H30 B2 P2
 46 47 0 0 0
SMALL
GASTEIGER

@<TRIPOS>ATOM
      1 P           6.9585    8.0366   10.0881 P.3     1  LIG1        1.0000
      2 H           7.6671    7.6573   11.1294 H       1  LIG1        0.0000
      3 H           6.2087    7.0246    9.9147 H       1  LIG1        0.0000
      4 C           8.1145    7.9672    8.6845 C.3     1  LIG1        0.0000
      5 H           8.7119    8.7664    8.7433 H       1  LIG1        0.0000
      6 C           9.0032    6.7179    8.7319 C.3     1  LIG1        0.0000
      7 H           9.5127    6.7061    9.5808 H       1  LIG1        0.0000
      8 H           8.4366    5.9068    8.7012 H       1  LIG1        0.0000
      9 C           9.9717    6.7102    7.5539 C.3     1  LIG1        0.0000
     10 H          10.5941    7.4760    7.6352 H       1  LIG1        0.0000
     11 H          10.5063    5.8777    7.5730 H       1  LIG1        0.0000
     12 C           9.2294    6.8020    6.2305 C.3     1  LIG1        0.0000
     13 H           9.8849    6.8485    5.4898 H       1  LIG1        0.0000
     14 H           8.6838    5.9859    6.1044 H       1  LIG1        0.0000
     15 C           8.3260    8.0228    6.1799 C.3     1  LIG1        0.0000
     16 H           7.8132    8.0153    5.3334 H       1  LIG1        0.0000
     17 H           8.8817    8.8414    6.1931 H       1  LIG1        0.0000
     18 C           7.3535    8.0530    7.3597 C.3     1  LIG1        0.0000
     19 H           6.7235    7.2928    7.2891 H       1  LIG1        0.0000
     20 H           6.8272    8.8912    7.3334 H       1  LIG1        0.0000
     21 B           6.0545    9.7273   10.2781 B       1  LIG1        0.0000
     22 H           6.8647   10.4922   10.1621 H       1  LIG1        0.0000
     23 H           5.3065    9.7763    9.4988 H       1  LIG1        0.0000
     24 P           5.1649    9.7534   11.9998 P.3     1  LIG1        1.0000
     25 H           4.4823   10.9384   12.0556 H       1  LIG1        0.0000
     26 C           6.3768    9.9577   13.3639 C.3     1  LIG1        0.0000
     27 H           6.9267    9.1233   13.3934 H       1  LIG1        0.0000
     28 C           5.6596   10.0681   14.7117 C.3     1  LIG1        0.0000
     29 H           5.1013   10.8854   14.7212 H       1  LIG1        0.0000
     30 H           5.0618    9.2877   14.8311 H       1  LIG1        0.0000
     31 C           6.6571   10.1221   15.8600 C.3     1  LIG1        0.0000
     32 H           6.1688   10.2341   16.7135 H       1  LIG1        0.0000
     33 H           7.1553    9.2679   15.9026 H       1  LIG1        0.0000
     34 C           7.6373   11.2693   15.6854 C.3     1  LIG1        0.0000
     35 H           7.1526   12.1295   15.7595 H       1  LIG1        0.0000
     36 H           8.3130   11.2365   16.4085 H       1  LIG1        0.0000
     37 C           8.3359   11.2025   14.3452 C.3     1  LIG1        0.0000
     38 H           8.9232   10.4061   14.3241 H       1  LIG1        0.0000
     39 H           8.9067   12.0039   14.2365 H       1  LIG1        0.0000
     40 C           7.3498   11.1283   13.1822 C.3     1  LIG1        0.0000
     41 H           7.8480   11.0141   12.3341 H       1  LIG1        0.0000
     42 H           6.8405   11.9759   13.1272 H       1  LIG1        0.0000
     43 B           4.0436    8.2161   12.3023 B       1  LIG1        0.0000
     44 H           3.3655    8.1599   11.4034 H       1  LIG1        0.0000
     45 H           4.7699    7.3625   12.3097 H       1  LIG1        0.0000
     46 H           3.4468    8.2634   13.2914 H       1  LIG1        0.0000
@<TRIPOS>BOND
     1    16    15    1
     2    13    12    1
     3    14    12    1
     4    15    17    1
     5    15    12    1
     6    15    18    1
     7    12     9    1
     8    19    18    1
     9    20    18    1
    10    18     4    1
    11     9    11    1
    12     9    10    1
    13     9     6    1
    14     4     6    1
    15     4     5    1
    16     4     1    1
    17     8     6    1
    18     6     7    1
    19    23    21    1
    20     3     1    1
    21     1    21    1
    22     1     2    1
    23    22    21    1
    24    21    24    1
    25    44    43    1
    26    24    25    1
    27    24    43    1
    28    24    26    1
    29    43    45    1
    30    43    46    1
    31    41    40    1
    32    42    40    1
    33    40    26    1
    34    40    37    1
    35    26    27    1
    36    26    28    1
    37    39    37    1
    38    38    37    1
    39    37    34    1
    40    28    29    1
    41    28    30    1
    42    28    31    1
    43    34    35    1
    44    34    31    1
    45    34    36    1
    46    31    33    1
    47    31    32    1
