@<TRIPOS>MOLECULE
?
 70 74 0 0 0
SMALL
GASTEIGER

@<TRIPOS>ATOM
      1 N           6.1467   11.1337    3.7490 N.pl3   1  LIG1       -0.1279
      2 N           5.7266    8.8181    1.3259 N.ar    1  LIG1       -0.2108
      3 N           5.5541    7.3090   -0.4014 N.pl3   1  LIG1       -0.1093
      4 N          -0.9042    4.7943   14.4534 N.pl3   2  LIG2       -0.1093
      5 N          -0.8639    1.8417   17.9444 N.pl3   2  LIG2       -0.1093
      6 N           5.5586   10.3174    3.0605 N.pl3   1  LIG1       -0.1093
      7 N          -1.4949    5.6803   13.8160 N.pl3   2  LIG2       -0.1279
      8 N          -1.0515    3.3130   16.1904 N.ar    2  LIG2       -0.2108
      9 C          -0.6170    0.3405   19.5769 C.ar    2  LIG2        0.0724
     10 N           6.1488    6.4767   -1.0996 N.pl3   1  LIG1       -0.1279
     11 C           5.3321   11.8524    4.6686 C.ar    1  LIG1        0.0724
     12 N          -1.4517    1.0293   18.6475 N.pl3   2  LIG2       -0.1279
     13 C           4.0483    6.1821   -2.3647 C.ar    1  LIG1       -0.0372
     14 H           3.6722    6.9366   -1.9706 H       1  LIG1        0.0637
     15 C           5.3182    5.7580   -2.0046 C.ar    1  LIG1        0.0724
     16 C           7.8026    9.6305    2.1701 C.ar    1  LIG1       -0.0183
     17 H           8.2544   10.1800    2.7685 H       1  LIG1        0.0653
     18 C          -0.6496    6.4090   12.9158 C.ar    2  LIG2        0.0724
     19 C           6.3947    8.0795    0.4744 C.ar    1  LIG1        0.1627
     20 C          -1.7567    4.0238   15.3292 C.ar    2  LIG2        0.1627
     21 C           7.7843    8.0536    0.4111 C.ar    1  LIG1       -0.0183
     22 H           8.2240    7.5120   -0.2044 H       1  LIG1        0.0653
     23 C           0.6750    0.7168   19.9053 C.ar    2  LIG2       -0.0372
     24 H           1.0665    1.4574   19.5014 H       2  LIG2        0.0637
     25 C           5.8763    4.6589   -2.5861 C.ar    1  LIG1       -0.0372
     26 H           6.7331    4.3921   -2.3404 H       1  LIG1        0.0637
     27 C          -1.1693   -0.7745   20.1559 C.ar    2  LIG2       -0.0372
     28 H          -2.0361   -1.0293   19.9345 H       2  LIG2        0.0637
     29 C           6.4110    9.5827    2.1628 C.ar    1  LIG1        0.1627
     30 C           4.0471   11.4702    5.0408 C.ar    1  LIG1       -0.0372
     31 H           3.6493   10.7235    4.6540 H       1  LIG1        0.0637
     32 C          -1.2050    7.5698   12.4244 C.ar    2  LIG2       -0.0372
     33 H          -2.0610    7.8266   12.6847 H       2  LIG2        0.0637
     34 C           0.6173    6.0088   12.5217 C.ar    2  LIG2       -0.0372
     35 H           0.9862    5.2184   12.8453 H       2  LIG2        0.0637
     36 C          -1.7315    2.5505   17.0321 C.ar    2  LIG2        0.1627
     37 C          -3.1490    4.0139   15.2392 C.ar    2  LIG2       -0.0183
     38 H          -3.5991    4.5275   14.6091 H       2  LIG2        0.0653
     39 C           3.9584   13.3297    6.5248 C.ar    1  LIG1       -0.0616
     40 H           3.4940   13.8355    7.1500 H       1  LIG1        0.0618
     41 C           1.3693   -0.0159   20.8322 C.ar    2  LIG2       -0.0599
     42 H           2.2270    0.2449   21.0803 H       2  LIG2        0.0618
     43 C          -0.4525   -1.5171   21.0584 C.ar    2  LIG2       -0.0599
     44 H          -0.8264   -2.2797   21.4331 H       2  LIG2        0.0618
     45 C          -3.1138    2.4589   17.0248 C.ar    2  LIG2       -0.0183
     46 H          -3.5533    1.8974   17.6209 H       2  LIG2        0.0653
     47 C           0.7637    7.9640   11.1715 C.ar    2  LIG2       -0.0616
     48 H           1.2482    8.4976   10.5827 H       2  LIG2        0.0618
     49 C           5.9072   12.9634    5.2281 C.ar    1  LIG1       -0.0372
     50 H           6.7687   13.2123    4.9848 H       1  LIG1        0.0637
     51 C           0.8029   -1.1349   21.4039 C.ar    2  LIG2       -0.0616
     52 H           1.2830   -1.6326   22.0267 H       2  LIG2        0.0618
     53 C           3.9196    4.3563   -3.8901 C.ar    1  LIG1       -0.0616
     54 H           3.4409    3.8805   -4.5299 H       1  LIG1        0.0618
     55 C           5.1809    3.9422   -3.5300 C.ar    1  LIG1       -0.0599
     56 H           5.5571    3.1856   -3.9193 H       1  LIG1        0.0618
     57 C           5.2200   13.7021    6.1453 C.ar    1  LIG1       -0.0599
     58 H           5.6098   14.4606    6.5151 H       1  LIG1        0.0618
     59 C           3.3742   12.2068    5.9799 C.ar    1  LIG1       -0.0599
     60 H           2.5228   11.9480    6.2499 H       1  LIG1        0.0618
     61 C           1.3185    6.8013   11.6459 C.ar    2  LIG2       -0.0599
     62 H           2.1709    6.5504   11.3734 H       2  LIG2        0.0618
     63 C           8.4903    8.8520    1.2821 C.ar    1  LIG1       -0.0551
     64 H           9.4202    8.8619    1.2651 H       1  LIG1        0.0620
     65 C          -3.8244    3.2115   16.1223 C.ar    2  LIG2       -0.0551
     66 H          -4.7533    3.1776   16.1077 H       2  LIG2        0.0620
     67 C           3.3613    5.4733   -3.3062 C.ar    1  LIG1       -0.0599
     68 H           2.5088    5.7460   -3.5568 H       1  LIG1        0.0618
     69 C          -0.4859    8.3463   11.5486 C.ar    2  LIG2       -0.0599
     70 H          -0.8534    9.1307   11.2128 H       2  LIG2        0.0618
@<TRIPOS>BOND
     1    54    53    1
     2    56    55    1
     3    53    55   ar
     4    53    67   ar
     5    68    67    1
     6    55    25   ar
     7    67    13   ar
     8    25    26    1
     9    25    15   ar
    10    13    15   ar
    11    13    14    1
    12    15    10    1
    13    10     3    1
    14     3    19    1
    15    22    21    1
    16    21    19   ar
    17    21    63   ar
    18    19     2   ar
    19    64    63    1
    20    63    16   ar
    21     2    29   ar
    22    29    16   ar
    23    29     6    1
    24    16    17    1
    25     6     1    1
    26     1    11    1
    27    31    30    1
    28    11    30   ar
    29    11    49   ar
    30    50    49    1
    31    30    59   ar
    32    49    57   ar
    33    59    60    1
    34    59    39   ar
    35    57    58    1
    36    57    39   ar
    37    39    40    1
    38    48    47    1
    39    47    69   ar
    40    47    61   ar
    41    70    69    1
    42    62    61    1
    43    69    32   ar
    44    61    34   ar
    45    32    33    1
    46    32    18   ar
    47    34    35    1
    48    34    18   ar
    49    18     7    1
    50     7     4    1
    51     4    20    1
    52    38    37    1
    53    37    20   ar
    54    37    65   ar
    55    20     8   ar
    56    66    65    1
    57    65    45   ar
    58     8    36   ar
    59    45    36   ar
    60    45    46    1
    61    36     5    1
    62     5    12    1
    63    12     9    1
    64    24    23    1
    65     9    23   ar
    66     9    27   ar
    67    23    41   ar
    68    28    27    1
    69    27    43   ar
    70    41    42    1
    71    41    51   ar
    72    43    51   ar
    73    43    44    1
    74    51    52    1
