@<TRIPOS>MOLECULE
?
 23 23 0 0 0
SMALL
GASTEIGER

@<TRIPOS>ATOM
      1 C           0.9292    6.0225    3.6126 C.ar    1  LIG1        0.1866
      2 C          -0.1169    5.3948    2.9347 C.ar    1  LIG1        0.1726
      3 C          -0.7107    5.9854    1.8364 C.ar    1  LIG1        0.0025
      4 H          -1.4487    5.5789    1.3980 H       1  LIG1        0.0664
      5 C          -0.1930    7.1863    1.3999 C.ar    1  LIG1        0.1286
      6 C           0.8576    7.8238    2.0311 C.ar    1  LIG1       -0.0278
      7 H           1.1944    8.6478    1.7006 H       1  LIG1        0.0641
      8 C           1.4093    7.2354    3.1561 C.ar    1  LIG1       -0.0126
      9 H           2.1199    7.6666    3.6159 H       1  LIG1        0.0656
     10 C           1.4686    6.8706    6.8956 C.3     1  LIG1        0.0920
     11 H           1.1054    6.9719    7.7999 H       1  LIG1        0.0499
     12 H           1.2465    7.6631    6.3647 H       1  LIG1        0.0499
     13 H           2.4419    6.7712    6.9445 H       1  LIG1        0.0499
     14 N          -0.6253    4.0746    3.3306 N.pl3   1  LIG1        0.0602
     15 N          -0.7814    7.7938    0.1915 N.pl3   1  LIG1        0.0565
     16 O           1.5344    5.4465    4.7191 O.3     1  LIG1       -0.3440
     17 O           1.2433    4.2841    6.8011 O.2     1  LIG1       -0.1370
     18 O          -0.6157    5.6253    5.9126 O.2     1  LIG1       -0.1370
     19 O           0.1573    3.2675    3.8168 O.2     1  LIG1       -0.1260
     20 O          -1.8097    3.8553    3.1129 O.2     1  LIG1       -0.1260
     21 O          -1.8680    7.3785   -0.1897 O.2     1  LIG1       -0.1261
     22 O          -0.1389    8.6674   -0.3773 O.2     1  LIG1       -0.1261
     23 S           0.7766    5.4565    6.1469 S.O2    1  LIG1        0.1178
@<TRIPOS>BOND
     1    22    15    2
     2    21    15    2
     3    15     5    1
     4     4     3    1
     5     5     3   ar
     6     5     6   ar
     7     7     6    1
     8     3     2   ar
     9     6     8   ar
    10     2    14    1
    11     2     1   ar
    12    20    14    2
    13     8     1   ar
    14     8     9    1
    15    14    19    2
    16     1    16    1
    17    16    23    1
    18    18    23    2
    19    23    17    2
    20    23    10    1
    21    12    10    1
    22    10    13    1
    23    10    11    1
