@<TRIPOS>MOLECULE
C18 H22 Br P
 42 44 0 0 0
SMALL
GASTEIGER

@<TRIPOS>ATOM
      1 BR         -0.9295    9.3741   14.5001 Br      1  LIG1       -0.0496
      2 P           0.0448    6.3133   14.7028 P.3     1  LIG1       -0.0687
      3 C           0.3077    6.5498   12.8906 C.ar    1  LIG1       -0.0141
      4 C           0.7316    5.4932   12.1078 C.ar    1  LIG1       -0.0532
      5 C           1.0803    5.5819   10.7440 C.ar    1  LIG1       -0.0574
      6 C           1.0241    6.7935   10.1385 C.ar    1  LIG1       -0.0390
      7 C           0.5888    7.9010   10.8787 C.ar    1  LIG1       -0.0099
      8 C           0.5942    9.0704   10.0910 C.ar    1  LIG1       -0.0390
      9 C           0.1670   10.2398   10.6245 C.ar    1  LIG1       -0.0569
     10 C          -0.2834   10.2312   11.9584 C.ar    1  LIG1       -0.0469
     11 C          -0.2668    9.1031   12.7334 C.ar    1  LIG1        0.0262
     12 C           0.1893    7.8381   12.2425 C.ar    1  LIG1        0.0042
     13 C           1.3564    7.2146    8.7218 C.3     1  LIG1       -0.0231
     14 C           1.1227    8.7440    8.7057 C.3     1  LIG1       -0.0231
     15 C          -1.7972    5.9574   14.7195 C.3     1  LIG1       -0.0219
     16 C          -2.3887    6.1881   16.1032 C.3     1  LIG1       -0.0584
     17 C          -2.1960    4.6123   14.1287 C.3     1  LIG1       -0.0584
     18 C           0.8461    4.6674   15.0524 C.3     1  LIG1       -0.0219
     19 C           0.4783    4.2566   16.4782 C.3     1  LIG1       -0.0584
     20 C           2.3649    4.8456   14.9746 C.3     1  LIG1       -0.0584
     21 H           0.7935    4.6398   12.5212 H       1  LIG1        0.0624
     22 H           1.3481    4.8095   10.2604 H       1  LIG1        0.0621
     23 H           0.1706   11.0407   10.1133 H       1  LIG1        0.0621
     24 H          -0.6117   11.0398   12.3361 H       1  LIG1        0.0629
     25 H           0.7643    6.7617    8.0710 H       1  LIG1        0.0316
     26 H           2.2974    7.0002    8.5013 H       1  LIG1        0.0316
     27 H           1.9692    9.2271    8.5303 H       1  LIG1        0.0316
     28 H           0.4628    8.9912    8.0108 H       1  LIG1        0.0316
     29 H          -2.2134    6.6489   14.1287 H       1  LIG1        0.0346
     30 H          -2.0720    5.4898   16.7128 H       1  LIG1        0.0236
     31 H          -3.3668    6.1571   16.0506 H       1  LIG1        0.0236
     32 H          -2.1068    7.0657   16.4363 H       1  LIG1        0.0236
     33 H          -3.1716    4.5658   14.0507 H       1  LIG1        0.0236
     34 H          -1.8802    3.8924   14.7128 H       1  LIG1        0.0236
     35 H          -1.7929    4.5132   13.2413 H       1  LIG1        0.0236
     36 H           0.5385    3.9793   14.3962 H       1  LIG1        0.0346
     37 H           0.7602    4.9559   17.1029 H       1  LIG1        0.0236
     38 H           0.9296    3.4161   16.7038 H       1  LIG1        0.0236
     39 H          -0.4920    4.1326   16.5433 H       1  LIG1        0.0236
     40 H           2.6909    5.2349   15.8120 H       1  LIG1        0.0236
     41 H           2.5856    5.4415   14.2290 H       1  LIG1        0.0236
     42 H           2.7884    3.9733   14.8332 H       1  LIG1        0.0236
@<TRIPOS>BOND
     1    28    14    1
     2    25    13    1
     3    26    13    1
     4    27    14    1
     5    14    13    1
     6    14     8    1
     7    13     6    1
     8     8     9   ar
     9     8     7   ar
    10    23     9    1
    11     6     5   ar
    12     6     7   ar
    13    22     5    1
    14     9    10   ar
    15     5     4   ar
    16     7    12   ar
    17    10    24    1
    18    10    11   ar
    19     4    21    1
    20     4     3   ar
    21    12    11   ar
    22    12     3   ar
    23    11     1    1
    24     3     2    1
    25    35    17    1
    26    33    17    1
    27    29    15    1
    28    17    34    1
    29    17    15    1
    30    41    20    1
    31    36    18    1
    32     2    15    1
    33     2    18    1
    34    15    16    1
    35    42    20    1
    36    20    18    1
    37    20    40    1
    38    18    19    1
    39    31    16    1
    40    16    32    1
    41    16    30    1
    42    19    39    1
    43    19    38    1
    44    19    37    1
