@<TRIPOS>MOLECULE
C7 H18 B11 N O
 76 86 0 0 0
SMALL
GASTEIGER

@<TRIPOS>ATOM
      1 O           2.6417    3.8218   12.6788 O.2     1  LIG1        0.0000
      2 O          -1.1939   12.3809   13.3406 O.2     2  LIG2        0.0000
      3 N           0.4256    3.4373    9.2444 N.pl3   1  LIG1        0.0000
      4 N           1.3862   10.0304   11.1714 N.pl3   2  LIG2        0.0000
      5 C           0.7715    4.3585   11.4167 C.2     1  LIG1        0.0000
      6 H           0.4770    4.9044   12.1099 H       1  LIG1        0.0000
      7 C           1.7108   10.3713   12.4368 C.2     2  LIG2        0.0000
      8 H           2.5104   10.0573   12.7924 H       2  LIG2        0.0000
      9 C          -0.3099   11.6203   12.6901 C.2     2  LIG2        0.0000
     10 C           1.5893    2.7661    9.3537 C.2     1  LIG1        0.0000
     11 H           1.8662    2.2311    8.6445 H       1  LIG1        0.0000
     12 C           4.1884    7.3229    8.4940 C.3     2  LIG2        0.0000
     13 H           4.8314    6.6839    7.8714 H       2  LIG2        0.0000
     14 B           2.3214    9.1561   10.3069 B       2  LIG2        0.0000
     15 C           0.9053   11.1660   13.2232 C.2     2  LIG2        0.0000
     16 H           1.1615   11.3955   14.0872 H       2  LIG2        0.0000
     17 C           0.2083   10.4684   10.6625 C.3     2  LIG2        0.0000
     18 H          -0.0225   10.2281    9.7940 H       2  LIG2        0.0000
     19 C          -0.6515   11.2504   11.3814 C.2     2  LIG2        0.0000
     20 H          -1.4545   11.5338   11.0067 H       2  LIG2        0.0000
     21 C           1.9684    3.6542   11.5400 C.2     1  LIG1        0.0000
     22 C           2.3827    2.8438   10.4764 C.2     1  LIG1        0.0000
     23 H           3.1797    2.3663   10.5277 H       1  LIG1        0.0000
     24 C          -2.3256    3.1447    5.4009 C.3     1  LIG1        0.0000
     25 H          -2.9697    3.0925    4.5104 H       1  LIG1        0.0000
     26 C           0.0328    4.2420   10.2701 C.3     1  LIG1        0.0000
     27 H          -0.7581    4.7252   10.1891 H       1  LIG1        0.0000
     28 B          -0.4550    3.3086    7.9773 B       1  LIG1        0.0000
     29 B          -2.2139    3.4530    8.1304 B       1  LIG1        0.0000
     30 H          -2.7183    3.6039    9.0961 H       1  LIG1        0.0000
     31 B           3.6571    9.8772    9.3641 B       2  LIG2        0.0000
     32 H           3.8858   10.9533    9.3698 H       2  LIG2        0.0000
     33 B           4.3787    7.2042   10.1809 B       2  LIG2        0.0000
     34 H           5.0926    6.5445   10.6954 H       2  LIG2        0.0000
     35 C           3.9151    3.1651   12.8067 C.3     1  LIG1        0.0000
     36 H           4.3095    3.3943   13.6510 H       1  LIG1        0.0000
     37 H           4.4944    3.4488   12.0962 H       1  LIG1        0.0000
     38 H           3.7911    2.2143   12.7582 H       1  LIG1        0.0000
     39 B           2.9393    6.5541    9.3559 B       2  LIG2        0.0000
     40 H           2.7244    5.4756    9.3373 H       2  LIG2        0.0000
     41 B          -1.5991    1.6971    5.9327 B       1  LIG1        0.0000
     42 H          -1.7261    0.7137    5.4563 H       1  LIG1        0.0000
     43 B          -1.4714    1.8788    7.6937 B       1  LIG1        0.0000
     44 H          -1.4958    1.0155    8.3743 H       1  LIG1        0.0000
     45 C          -0.9047   12.6991   14.7192 C.3     2  LIG2        0.0000
     46 H          -0.8525   11.8880   15.2297 H       2  LIG2        0.0000
     47 H          -1.6026   13.2556   15.0724 H       2  LIG2        0.0000
     48 H          -0.0671   13.1645   14.7713 H       2  LIG2        0.0000
     49 B          -0.0516    2.2171    6.6408 B       1  LIG1        0.0000
     50 H           0.8374    1.5688    6.6485 H       1  LIG1        0.0000
     51 B          -0.6387    2.9868    5.1546 B       1  LIG1        0.0000
     52 H          -0.1481    2.8326    4.1820 H       1  LIG1        0.0000
     53 B           2.7582    7.5248   10.8303 B       2  LIG2        0.0000
     54 H           2.4118    7.0894   11.7798 H       2  LIG2        0.0000
     55 B           3.9953    8.8305   10.7781 B       2  LIG2        0.0000
     56 H           4.4450    9.2378   11.6960 H       2  LIG2        0.0000
     57 B           3.8277    8.8866    7.9024 B       2  LIG2        0.0000
     58 H           4.1828    9.3080    6.9495 H       2  LIG2        0.0000
     59 B          -1.2532    4.7522    7.3528 B       1  LIG1        0.0000
     60 H          -1.1378    5.7428    7.8184 H       1  LIG1        0.0000
     61 B          -2.9260    2.4546    6.8460 B       1  LIG1        0.0000
     62 H          -3.9027    1.9607    6.9581 H       1  LIG1        0.0000
     63 B          -2.7943    4.2197    6.6397 B       1  LIG1        0.0000
     64 H          -3.6878    4.8615    6.6211 H       1  LIG1        0.0000
     65 B           1.6512    7.7647    9.4399 B       2  LIG2        0.0000
     66 H           0.5892    7.4835    9.4895 H       2  LIG2        0.0000
     67 B          -1.3826    4.5450    5.5964 B       1  LIG1        0.0000
     68 H          -1.3706    5.4001    4.9038 H       1  LIG1        0.0000
     69 B           0.0874    3.9914    6.4253 B       1  LIG1        0.0000
     70 H           1.0599    4.4874    6.2910 H       1  LIG1        0.0000
     71 B           2.2085    9.2199    8.5411 B       2  LIG2        0.0000
     72 H           1.5010    9.8781    8.0151 H       2  LIG2        0.0000
     73 B           4.9257    8.6435    9.2831 B       2  LIG2        0.0000
     74 H           5.9918    8.9077    9.2193 H       2  LIG2        0.0000
     75 B           2.6051    7.5931    7.9455 B       2  LIG2        0.0000
     76 H           2.1753    7.1848    7.0179 H       2  LIG2        0.0000
@<TRIPOS>BOND
     1    52    51    1
     2    25    24    1
     3    68    67    1
     4    51    69    1
     5    51    49    1
     6    24    67    1
     7    24    41    1
     8    24    63    1
     9    42    41    1
    10    67    69    1
    11    67    59    1
    12    41    49    1
    13    41    43    1
    14    70    69    1
    15    64    63    1
    16    63    59    1
    17    63    29    1
    18    49    50    1
    19    49    28    1
    20    61    62    1
    21    61    43    1
    22    61    29    1
    23    58    57    1
    24    76    75    1
    25    59    60    1
    26    59    28    1
    27    43    44    1
    28    13    12    1
    29    57    75    1
    30    57    71    1
    31    57    31    1
    32    75    12    1
    33    75    71    1
    34    28    29    1
    35    28     3    1
    36    72    71    1
    37    29    30    1
    38    12    39    1
    39    12    33    1
    40    71    14    1
    41    11    10    1
    42    74    73    1
    43     3    10    1
    44     3    26    1
    45    73    31    1
    46    73    55    1
    47    40    39    1
    48    10    22    2
    49    39    65    1
    50    39    53    1
    51    31    32    1
    52    65    66    1
    53    18    17    1
    54    33    34    1
    55    33    55    1
    56    33    53    1
    57    27    26    1
    58    26     5    1
    59    14    55    1
    60    14    53    1
    61    14     4    1
    62    22    23    1
    63    22    21    1
    64    17     4    1
    65    17    19    1
    66    55    56    1
    67    53    54    1
    68    20    19    1
    69     4     7    1
    70    19     9    2
    71     5    21    2
    72     5     6    1
    73    21     1    1
    74    37    35    1
    75     7     8    1
    76     7    15    2
    77     1    35    1
    78     9    15    1
    79     9     2    1
    80    38    35    1
    81    35    36    1
    82    15    16    1
    83     2    45    1
    84    45    48    1
    85    45    47    1
    86    45    46    1
