@<TRIPOS>MOLECULE
4342460.cif
 114 161 0 0 0
SMALL
GASTEIGER

@<TRIPOS>ATOM
      1 CL         14.8141    3.9062   12.4337 Cl      1  LIG1       -0.1159
      2 CL         12.9648    5.8791   10.1624 Cl      1  LIG1       -0.1162
      3 CL         15.4052    5.0369   16.2707 Cl      1  LIG1       -0.1159
      4 CL         13.2596    0.3068   13.4370 Cl      1  LIG1       -0.1078
      5 CL          9.1158    4.9677    9.1803 Cl      1  LIG1       -0.1158
      6 CL         12.0712    9.6003   11.2810 Cl      1  LIG1       -0.1120
      7 CL         11.0279   11.5994   14.1823 Cl      1  LIG1       -0.1121
      8 CL         14.2488    1.1665   17.3293 Cl      1  LIG1       -0.1078
      9 CL         10.1493   -1.3591   14.2564 Cl      1  LIG1       -0.1117
     10 CL          8.2065    8.8765    9.8979 Cl      1  LIG1       -0.1078
     11 CL          7.2196   11.3489   12.5291 Cl      1  LIG1       -0.1105
     12 CL         11.4214    1.1452   20.4328 Cl      1  LIG1       -0.1105
     13 CL         11.3061   -0.9193   18.2115 Cl      1  LIG1       -0.1105
     14 CL          4.9188    9.3858   12.1619 Cl      1  LIG1       -0.1105
     15 CL          5.4388    8.2227   20.0179 Cl      1  LIG1       -0.1120
     16 CL         10.1821    4.0210   21.9075 Cl      1  LIG1       -0.1156
     17 CL          3.9932    2.8880   18.8175 Cl      1  LIG1       -0.1120
     18 CL          3.0299    6.8028   13.5091 Cl      1  LIG1       -0.1156
     19 CL          2.8337    6.2558   17.3301 Cl      1  LIG1       -0.1120
     20 CL          6.4086    4.8706   21.5383 Cl      1  LIG1       -0.1120
     21 C          13.0360    5.6135   13.6782 C.3     1  LIG1        0.0166
     22 C          13.3163    4.1416   13.4211 C.3     1  LIG1        0.0719
     23 C          12.1069    3.5386   12.7634 C.3     1  LIG1        0.0342
     24 C          11.3775    4.3811   11.8816 C.3     1  LIG1        0.0203
     25 C          11.7729    5.7985   11.5324 C.3     1  LIG1        0.0688
     26 C          12.3430    6.4544   12.7923 C.3     1  LIG1        0.0166
     27 C          11.9054    7.6884   13.2312 C.3     1  LIG1        0.0188
     28 C          11.9898    8.0122   14.6411 C.3     1  LIG1        0.0030
     29 C          12.5215    7.0524   15.5584 C.3     1  LIG1        0.0013
     30 C          13.1569    5.9175   15.0091 C.3     1  LIG1        0.0155
     31 C          13.6637    4.7412   15.8139 C.3     1  LIG1        0.0718
     32 C          13.4852    3.6261   14.8326 C.3     1  LIG1        0.0320
     33 C          13.0418    2.4384   15.1982 C.3     1  LIG1        0.0443
     34 C          12.2279    1.5611   14.2813 C.3     1  LIG1        0.0990
     35 C          11.4984    2.3822   13.2365 C.2     1  LIG1       -0.0344
     36 C          10.0990    2.1625   13.0071 C.2     1  LIG1       -0.0498
     37 C           9.3369    3.1438   12.2781 C.3     1  LIG1        0.0190
     38 C          10.0529    4.1614   11.6237 C.3     1  LIG1        0.0195
     39 C           9.4156    5.3426   10.9407 C.3     1  LIG1        0.0721
     40 C          10.4618    6.4032   11.1554 C.3     1  LIG1        0.0314
     41 C          10.1355    7.6422   11.4586 C.3     1  LIG1        0.0408
     42 C          11.0223    8.5210   12.3131 C.3     1  LIG1        0.0845
     43 C           9.9896    9.3173   13.0548 C.2     1  LIG1       -0.0231
     44 C          10.2795    9.9566   14.3685 C.3     1  LIG1        0.0827
     45 C          11.1836    9.0397   15.1851 C.3     1  LIG1        0.0175
     46 C          10.6864    8.9225   16.4793 C.3     1  LIG1        0.0015
     47 C          11.1010    7.8916   17.3676 C.3     1  LIG1        0.0001
     48 C          12.0877    6.9814   16.9292 C.3     1  LIG1        0.0004
     49 C          12.2643    5.7176   17.6590 C.3     1  LIG1        0.0052
     50 C          12.8460    4.5480   17.0685 C.3     1  LIG1        0.0331
     51 C          12.4774    3.2693   17.5045 C.2     1  LIG1       -0.0333
     52 C          12.8172    2.0617   16.6456 C.3     1  LIG1        0.0991
     53 C          11.6270    1.1597   16.5396 C.2     1  LIG1       -0.0182
     54 C          11.2988    0.9069   15.2723 C.2     1  LIG1       -0.0193
     55 C           9.9819    0.3519   14.8526 C.3     1  LIG1        0.0864
     56 C           9.3715    1.2506   13.7948 C.3     1  LIG1        0.0352
     57 C           8.0354    1.5083   14.1191 C.3     1  LIG1        0.0052
     58 C           7.3041    2.5623   13.5287 C.3     1  LIG1        0.0007
     59 C           7.9279    3.3420   12.5262 C.3     1  LIG1        0.0041
     60 C           7.3386    4.6322   12.1615 C.3     1  LIG1        0.0055
     61 C           8.0911    5.6878   11.5837 C.3     1  LIG1        0.0331
     62 C           7.7398    7.0210   11.8140 C.2     1  LIG1       -0.0333
     63 C           8.7111    8.1311   11.4765 C.3     1  LIG1        0.0988
     64 C           8.7457    9.1438   12.5837 C.2     1  LIG1       -0.0185
     65 C           7.5248    9.7072   13.2304 C.3     1  LIG1        0.0989
     66 C           7.8032    9.8294   14.7145 C.3     1  LIG1        0.0207
     67 C           9.0394    9.9946   15.2255 C.3     1  LIG1        0.0190
     68 C           9.3312    9.4676   16.5217 C.3     1  LIG1        0.0018
     69 C           8.3675    8.9158   17.3513 C.3     1  LIG1        0.0038
     70 C           8.8206    8.0320   18.4206 C.3     1  LIG1        0.0018
     71 C          10.1758    7.5810   18.4434 C.3     1  LIG1        0.0001
     72 C          10.4657    6.4362   19.2095 C.3     1  LIG1        0.0016
     73 C          11.4907    5.5111   18.7955 C.3     1  LIG1        0.0053
     74 C          11.1606    4.2192   19.2710 C.3     1  LIG1        0.0331
     75 C          11.5694    3.0942   18.5832 C.2     1  LIG1       -0.0352
     76 C          10.7901    1.8106   18.8937 C.3     1  LIG1        0.0979
     77 C          10.7862    0.7368   17.7144 C.3     1  LIG1        0.0990
     78 C           9.3485    0.6955   17.2552 C.3     1  LIG1        0.0207
     79 C           8.9760    0.4824   15.9712 C.3     1  LIG1        0.0193
     80 C           7.7878    1.0771   15.4850 C.3     1  LIG1        0.0022
     81 C           6.8856    1.7627   16.2943 C.3     1  LIG1        0.0038
     82 C           5.9661    2.6911   15.6574 C.3     1  LIG1        0.0018
     83 C           6.1542    3.0331   14.2736 C.3     1  LIG1        0.0001
     84 C           5.5304    4.1928   13.8045 C.3     1  LIG1        0.0016
     85 C           6.1408    4.9923   12.7650 C.3     1  LIG1        0.0053
     86 C           5.7434    6.3354   12.9374 C.3     1  LIG1        0.0331
     87 C           6.5804    7.3547   12.5544 C.2     1  LIG1       -0.0352
     88 C           6.2809    8.7292   13.1481 C.3     1  LIG1        0.0979
     89 C           5.9104    8.4962   14.6297 C.3     1  LIG1        0.0241
     90 C           6.8050    9.1703   15.4740 C.3     1  LIG1        0.0071
     91 C           7.0219    8.7473   16.8073 C.3     1  LIG1        0.0189
     92 C           6.1350    7.7627   17.3473 C.2     1  LIG1       -0.0380
     93 C           6.3827    7.2721   18.7633 C.3     1  LIG1        0.0831
     94 C           7.8550    7.2903   19.1048 C.3     1  LIG1        0.0190
     95 C           8.1948    6.1289   19.8236 C.3     1  LIG1        0.0201
     96 C           9.4867    5.7424   19.9218 C.3     1  LIG1        0.0160
     97 C           9.9051    4.3117   20.1373 C.3     1  LIG1        0.0741
     98 C           8.8513    3.3668   19.5827 C.3     1  LIG1        0.0345
     99 C           9.3177    2.1972   19.0135 C.3     1  LIG1        0.0241
    100 C           8.5211    1.5099   18.0881 C.3     1  LIG1        0.0071
    101 C           7.2657    2.0088   17.6745 C.3     1  LIG1        0.0189
    102 C           6.7128    3.1091   18.4014 C.2     1  LIG1       -0.0380
    103 C           5.4056    3.6790   17.9463 C.3     1  LIG1        0.0831
    104 C           5.2309    3.5716   16.4479 C.3     1  LIG1        0.0190
    105 C           4.6646    4.7363   15.9451 C.3     1  LIG1        0.0201
    106 C           4.7548    5.0237   14.6163 C.3     1  LIG1        0.0160
    107 C           4.7203    6.4197   14.0719 C.3     1  LIG1        0.0741
    108 C           5.2117    7.4158   15.1008 C.3     1  LIG1        0.0345
    109 C           5.2712    7.1003   16.4883 C.2     1  LIG1       -0.0369
    110 C           4.5686    5.8250   16.9756 C.3     1  LIG1        0.0832
    111 C           5.2635    5.1658   18.1272 C.3     1  LIG1        0.0378
    112 C           6.0640    5.8216   18.9625 C.3     1  LIG1        0.0378
    113 C           7.0622    5.1394   19.8643 C.3     1  LIG1        0.0832
    114 C           7.5152    3.7847   19.3171 C.2     1  LIG1       -0.0369
@<TRIPOS>BOND
     1     5    39    1
     2    10    63    1
     3     2    25    1
     4    39    40    1
     5    39    61    1
     6    39    38    1
     7    40    41    1
     8    40    25    1
     9     6    42    1
    10    41    63    1
    11    41    42    1
    12    63    62    1
    13    63    64    1
    14    25    24    1
    15    25    26    1
    16    61    62    1
    17    61    60    1
    18    38    24    1
    19    38    37    1
    20    62    87    2
    21    24    23    1
    22    60    59    1
    23    60    85    1
    24    14    88    1
    25    37    59    1
    26    37    36    1
    27    42    43    1
    28    42    27    1
    29     1    22    1
    30    59    58    1
    31    11    65    1
    32    87    86    1
    33    87    88    1
    34    64    43    2
    35    64    65    1
    36    23    35    1
    37    23    22    1
    38    85    86    1
    39    85    84    1
    40    26    27    1
    41    26    21    1
    42    86   107    1
    43    36    35    2
    44    36    56    1
    45    43    44    1
    46    88    65    1
    47    88    89    1
    48    65    66    1
    49    27    28    1
    50    35    34    1
    51    22    21    1
    52    22    32    1
    53     4    34    1
    54    18   107    1
    55    58    57    1
    56    58    83    1
    57    21    30    1
    58    56    57    1
    59    56    55    1
    60    84    83    1
    61    84   106    1
    62   107   106    1
    63   107   108    1
    64    57    80    1
    65     7    44    1
    66     9    55    1
    67    83    82    1
    68    34    33    1
    69    34    54    1
    70    44    45    1
    71    44    67    1
    72   106   105    1
    73    89   108    1
    74    89    90    1
    75    28    45    1
    76    28    29    1
    77    66    67    1
    78    66    90    1
    79    32    33    1
    80    32    31    1
    81    55    54    1
    82    55    79    1
    83    30    29    1
    84    30    31    1
    85   108   109    1
    86    45    46    1
    87    33    52    1
    88    67    68    1
    89    54    53    2
    90    90    91    1
    91    80    79    1
    92    80    81    1
    93    29    48    1
    94    82    81    1
    95    82   104    1
    96    31     3    1
    97    31    50    1
    98   105   104    1
    99   105   110    1
   100    79    78    1
   101    81   101    1
   102   104   103    1
   103    46    68    1
   104    46    47    1
   105   109   110    1
   106   109    92    2
   107    68    69    1
   108    53    52    1
   109    53    77    1
   110    52     8    1
   111    52    51    1
   112    91    92    1
   113    91    69    1
   114    48    47    1
   115    48    49    1
   116   110    19    1
   117   110   111    1
   118    50    51    1
   119    50    49    1
   120    78    77    1
   121    78   100    1
   122    92    93    1
   123    69    70    1
   124    47    71    1
   125    51    75    2
   126    49    73    1
   127   101   100    1
   128   101   102    1
   129    77    13    1
   130    77    76    1
   131   103   111    1
   132   103   102    1
   133   103    17    1
   134   100    99    1
   135   111   112    1
   136   102   114    2
   137    70    71    1
   138    70    94    1
   139    71    72    1
   140    75    76    1
   141    75    74    1
   142    93   112    1
   143    93    94    1
   144    93    15    1
   145    73    72    1
   146    73    74    1
   147    76    99    1
   148    76    12    1
   149   112   113    1
   150    99    98    1
   151    94    95    1
   152    72    96    1
   153    74    97    1
   154   114    98    1
   155   114   113    1
   156    98    97    1
   157    95   113    1
   158    95    96    1
   159   113    20    1
   160    96    97    1
   161    97    16    1
