@<TRIPOS>MOLECULE
?
 103 110 0 0 0
SMALL
GASTEIGER

@<TRIPOS>ATOM
      1 S           0.2287   14.8239    4.6021 S.2     1  LIG1        0.0000
      2 C           3.6228   15.0024    5.3580 C.3     1  LIG1        0.0000
      3 H           2.8401   14.4346    5.5689 H       1  LIG1        0.0000
      4 H           3.7406   15.6527    6.0948 H       1  LIG1        0.0000
      5 C           6.1029   15.0075    4.9250 C.3     1  LIG1        0.0000
      6 H           6.2405   15.6589    5.6578 H       1  LIG1        0.0000
      7 H           6.9148   14.4450    4.8539 H       1  LIG1        0.0000
      8 C           5.6639   14.7486    2.4699 C.3     1  LIG1        0.0000
      9 H           6.4739   14.1877    2.3702 H       1  LIG1        0.0000
     10 H           5.5167   15.2335    1.6192 H       1  LIG1        0.0000
     11 C           3.1964   14.7436    2.8957 C.3     1  LIG1        0.0000
     12 H           3.0462   15.2294    2.0467 H       1  LIG1        0.0000
     13 H           2.4057   14.1752    3.0720 H       1  LIG1        0.0000
     14 C           4.6130   16.6237    3.7535 C.3     1  LIG1        0.0000
     15 H           4.4671   17.1364    2.9188 H       1  LIG1        0.0000
     16 H           4.7428   17.2692    4.4926 H       1  LIG1        0.0000
     17 N           2.2003   16.6691    4.1670 N.am    1  LIG1        0.0000
     18 C          -3.5370   21.1308    3.4191 C.ar    1  LIG1        0.0000
     19 H          -4.2303   21.7806    3.4144 H       1  LIG1        0.0000
     20 C          -2.3956   21.3313    2.6658 C.ar    1  LIG1        0.0000
     21 H          -2.3036   22.1209    2.1451 H       1  LIG1        0.0000
     22 C          -1.3877   20.3863    2.6702 C.ar    1  LIG1        0.0000
     23 H          -0.6105   20.5293    2.1432 H       1  LIG1        0.0000
     24 C          -1.4928   19.2255    3.4355 C.ar    1  LIG1        0.0000
     25 C          -0.3926   18.2192    3.4024 C.3     1  LIG1        0.0000
     26 C           0.0246   17.5411    4.5138 C.3     1  LIG1        0.0000
     27 C           0.9296   16.3271    4.4076 C.2     1  LIG1        0.0000
     28 C           3.3820   15.7475    4.0439 C.3     1  LIG1        0.0000
     29 C           4.8831   14.1275    5.2307 C.3     1  LIG1        0.0000
     30 H           5.0344   13.6378    6.0891 H       1  LIG1        0.0000
     31 C           4.6839   13.1181    4.1004 C.3     1  LIG1        0.0000
     32 H           3.9026   12.5442    4.2996 H       1  LIG1        0.0000
     33 H           5.4834   12.5400    4.0235 H       1  LIG1        0.0000
     34 C           5.8647   15.7480    3.6075 C.3     1  LIG1        0.0000
     35 H           6.6539   16.3271    3.4049 H       1  LIG1        0.0000
     36 C           0.3069   18.0665    2.0893 C.2     1  LIG1        0.0000
     37 C           1.6571   18.1217    2.1362 C.2     1  LIG1        0.0000
     38 C           2.5769   17.9634    0.9729 C.ar    1  LIG1        0.0000
     39 C           3.7455   18.7374    0.8976 C.ar    1  LIG1        0.0000
     40 H           3.9205   19.3859    1.5700 H       1  LIG1        0.0000
     41 C           4.6494   18.5726   -0.1430 C.ar    1  LIG1        0.0000
     42 H           5.4298   19.1119   -0.1816 H       1  LIG1        0.0000
     43 C           4.4178   17.6270   -1.1196 C.ar    1  LIG1        0.0000
     44 H           5.0365   17.5141   -1.8311 H       1  LIG1        0.0000
     45 C           3.2769   16.8432   -1.0565 C.ar    1  LIG1        0.0000
     46 H           3.1182   16.1881   -1.7251 H       1  LIG1        0.0000
     47 C           2.3654   17.0096   -0.0240 C.ar    1  LIG1        0.0000
     48 H           1.5857   16.4662    0.0057 H       1  LIG1        0.0000
     49 B           2.2199   18.0902    3.6179 B       1  LIG1        0.0000
     50 C           2.6633   19.2933    4.4721 C.ar    1  LIG1        0.0000
     51 C           2.6366   20.5847    3.9313 C.ar    1  LIG1        0.0000
     52 H           2.4315   20.6994    3.0114 H       1  LIG1        0.0000
     53 C           2.9028   21.6963    4.7069 C.ar    1  LIG1        0.0000
     54 H           2.8800   22.5629    4.3204 H       1  LIG1        0.0000
     55 C           3.2019   21.5442    6.0492 C.ar    1  LIG1        0.0000
     56 H           3.3834   22.3097    6.5828 H       1  LIG1        0.0000
     57 C           3.2375   20.2817    6.6199 C.ar    1  LIG1        0.0000
     58 H           3.4408   20.1786    7.5418 H       1  LIG1        0.0000
     59 C           2.9737   19.1738    5.8343 C.ar    1  LIG1        0.0000
     60 H           3.0041   18.3089    6.2272 H       1  LIG1        0.0000
     61 C          -0.5409   17.8990    0.8807 C.ar    1  LIG1        0.0000
     62 C          -0.3680   18.6749   -0.2663 C.ar    1  LIG1        0.0000
     63 H           0.2938   19.3568   -0.2781 H       1  LIG1        0.0000
     64 C          -1.1520   18.4606   -1.3860 C.ar    1  LIG1        0.0000
     65 H          -1.0202   18.9895   -2.1640 H       1  LIG1        0.0000
     66 C          -2.1262   17.4792   -1.3761 C.ar    1  LIG1        0.0000
     67 H          -2.6644   17.3336   -2.1451 H       1  LIG1        0.0000
     68 C          -2.3136   16.7100   -0.2421 C.ar    1  LIG1        0.0000
     69 H          -2.9801   16.0325   -0.2327 H       1  LIG1        0.0000
     70 C          -1.5337   16.9231    0.8783 C.ar    1  LIG1        0.0000
     71 H          -1.6766   16.3977    1.6570 H       1  LIG1        0.0000
     72 C          -3.6688   19.9806    4.1791 C.ar    1  LIG1        0.0000
     73 H          -4.4532   19.8403    4.6950 H       1  LIG1        0.0000
     74 C          -2.6569   19.0350    4.1869 C.ar    1  LIG1        0.0000
     75 H          -2.7547   18.2466    4.7082 H       1  LIG1        0.0000
     76 C          -0.3286   17.9677    5.9041 C.ar    1  LIG1        0.0000
     77 C          -0.2255   19.3203    6.2276 C.ar    1  LIG1        0.0000
     78 H           0.0486   19.9399    5.5613 H       1  LIG1        0.0000
     79 C          -0.5165   19.7754    7.5029 C.ar    1  LIG1        0.0000
     80 H          -0.4455   20.7015    7.7064 H       1  LIG1        0.0000
     81 C          -0.9119   18.8781    8.4814 C.ar    1  LIG1        0.0000
     82 H          -1.1212   19.1867    9.3559 H       1  LIG1        0.0000
     83 C          -0.9992   17.5405    8.1827 C.ar    1  LIG1        0.0000
     84 H          -1.2629   16.9248    8.8565 H       1  LIG1        0.0000
     85 C          -0.7088   17.0812    6.9091 C.ar    1  LIG1        0.0000
     86 H          -0.7696   16.1528    6.7190 H       1  LIG1        0.0000
     87 C           4.4555   13.8650    2.7786 C.3     1  LIG1        0.0000
     88 H           4.3311   13.2020    2.0392 H       1  LIG1        0.0000
     89 O           4.4511    2.0345    9.0652 O.3     2  LIG2        0.0000
     90 C           5.7071    2.3306    8.4736 C.3     2  LIG2        0.0000
     91 H           6.2707    2.8326    9.1138 H       2  LIG2        0.0000
     92 H           5.5753    2.8927    7.6686 H       2  LIG2        0.0000
     93 C           3.7511    3.2104    9.4331 C.3     2  LIG2        0.0000
     94 H           3.6081    3.7809    8.6371 H       2  LIG2        0.0000
     95 H           4.2788    3.7249   10.0955 H       2  LIG2        0.0000
     96 C           6.3832    1.0525    8.0946 C.3     2  LIG2        0.0000
     97 H           7.2502    1.2513    7.6837 H       2  LIG2        0.0000
     98 H           5.8234    0.5624    7.4567 H       2  LIG2        0.0000
     99 H           6.5204    0.5043    8.8962 H       2  LIG2        0.0000
    100 C           2.4346    2.8182   10.0227 C.3     2  LIG2        0.0000
    101 H           1.9398    3.6232   10.2828 H       2  LIG2        0.0000
    102 H           2.5843    2.2577   10.8124 H       2  LIG2        0.0000
    103 H           1.9161    2.3158    9.3597 H       2  LIG2        0.0000
@<TRIPOS>BOND
     1    65    64    1
     2    67    66    1
     3    44    43    1
     4    46    45    1
     5    64    66   ar
     6    64    62   ar
     7    66    68   ar
     8    43    45   ar
     9    43    41   ar
    10    45    47   ar
    11    63    62    1
    12    62    61   ar
    13    68    69    1
    14    68    70   ar
    15    42    41    1
    16    41    39   ar
    17    47    48    1
    18    47    38   ar
    19    70    61   ar
    20    70    71    1
    21    61    36    1
    22    39    38   ar
    23    39    40    1
    24    38    37    1
    25    10     8    1
    26    88    87    1
    27    12    11    1
    28    36    37    2
    29    36    25    1
    30    37    49    1
    31    23    22    1
    32    21    20    1
    33     9     8    1
    34     8    87    1
    35     8    34    1
    36    20    22   ar
    37    20    18   ar
    38    22    24   ar
    39    87    11    1
    40    87    31    1
    41    11    13    1
    42    11    28    1
    43    15    14    1
    44    52    51    1
    45    25    24    1
    46    25    26    1
    47    35    34    1
    48    19    18    1
    49    18    72   ar
    50    24    74   ar
    51    34    14    1
    52    34     5    1
    53    49    17    1
    54    49    50    1
    55    14    28    1
    56    14    16    1
    57    51    50   ar
    58    51    53   ar
    59    33    31    1
    60    28    17    1
    61    28     2    1
    62    31    32    1
    63    31    29    1
    64    17    27    1
    65    72    74   ar
    66    72    73    1
    67    74    75    1
    68    54    53    1
    69    27    26    1
    70    27     1    2
    71    50    59   ar
    72    26    76    1
    73    53    55   ar
    74     7     5    1
    75     5    29    1
    76     5     6    1
    77    29     2    1
    78    29    30    1
    79     2     3    1
    80     2     4    1
    81    78    77    1
    82    59    60    1
    83    59    57   ar
    84    76    77   ar
    85    76    85   ar
    86    55    56    1
    87    55    57   ar
    88    77    79   ar
    89    57    58    1
    90    86    85    1
    91    85    83   ar
    92    98    96    1
    93    79    80    1
    94    79    81   ar
    95    92    90    1
    96    97    96    1
    97    96    90    1
    98    96    99    1
    99    83    81   ar
   100    83    84    1
   101    90    89    1
   102    90    91    1
   103    81    82    1
   104    94    93    1
   105    89    93    1
   106   103   100    1
   107    93   100    1
   108    93    95    1
   109   100   101    1
   110   100   102    1
