@<TRIPOS>MOLECULE
?
 17 18 0 0 0
SMALL
GASTEIGER

@<TRIPOS>ATOM
      1 S           7.0619   14.0924    6.5219 S.2     1  LIG1       -0.0365
      2 S           7.2301   11.2013    7.1851 S.2     1  LIG1       -0.0664
      3 S           5.8342   12.0365    4.7709 S.2     1  LIG1       -0.0728
      4 S           6.4863    8.2565    6.4373 S.2     1  LIG1       -0.0854
      5 C           6.7027   12.5222    6.1769 C.ar    1  LIG1        0.0949
      6 C           6.5322    9.9410    6.2117 C.ar    1  LIG1        0.0650
      7 C           5.8603   10.3276    5.0996 C.ar    1  LIG1        0.0377
      8 C           5.2677    9.2349    4.3620 C.ar    1  LIG1       -0.0257
      9 C           5.5302    8.0619    4.9940 C.ar    1  LIG1       -0.0082
     10 C           5.0850    6.7006    4.5899 C.3     1  LIG1       -0.0331
     11 C           4.4982    9.4232    3.1296 C.3     1  LIG1       -0.0379
     12 H           5.1756    6.1013    5.3338 H       1  LIG1        0.0283
     13 H           5.6272    6.3903    3.8608 H       1  LIG1        0.0283
     14 H           4.1661    6.7332    4.3145 H       1  LIG1        0.0283
     15 H           3.6023    9.1047    3.2604 H       1  LIG1        0.0278
     16 H           4.9118    8.9328    2.4163 H       1  LIG1        0.0278
     17 H           4.4763   10.3571    2.9059 H       1  LIG1        0.0278
@<TRIPOS>BOND
     1    16    11    1
     2    17    11    1
     3    11    15    1
     4    11     8    1
     5    13    10    1
     6    14    10    1
     7     8     9   ar
     8     8     7   ar
     9    10     9    1
    10    10    12    1
    11     3     7   ar
    12     3     5   ar
    13     9     4   ar
    14     7     6   ar
    15     5     1    2
    16     5     2   ar
    17     6     4   ar
    18     6     2   ar
