@<TRIPOS>MOLECULE
C12 H10 F10 N2 O2
 18 17 0 0 0
SMALL
GASTEIGER

@<TRIPOS>ATOM
      1 F           1.3652    1.3849    3.1032 F       1  LIG1       -0.1871
      2 F           1.0002    0.9303    0.5387 F       1  LIG1       -0.1646
      3 F           3.1137    0.4388    2.2128 F       1  LIG1       -0.1871
      4 F           1.2303    3.0375    0.8773 F       1  LIG1       -0.1646
      5 F           2.8238    1.9075   -0.0002 F       1  LIG1       -0.1646
      6 O           2.7185    3.5643    3.5774 O.2     1  LIG1       -0.2899
      7 N           5.1438    4.8522    3.5277 N.2     1  LIG1       -0.2443
      8 C           6.0417    5.9702    3.7776 C.3     1  LIG1        0.2010
      9 H           5.5638    6.8004    3.6256 H       1  LIG1        0.1091
     10 H           6.7777    5.9323    3.1471 H       1  LIG1        0.1091
     11 C           4.6295    2.7745    2.4467 C.3     1  LIG1        0.1191
     12 H           4.9685    2.0699    1.9427 H       1  LIG1        0.0493
     13 C           5.4575    3.8277    2.7795 C.2     1  LIG1        0.1525
     14 H           6.3219    3.8061    2.4374 H       1  LIG1        0.1327
     15 C           3.2914    2.7457    2.8505 C.2     1  LIG1        0.2241
     16 C           2.4261    1.6002    2.2945 C.3     1  LIG1        0.3987
     17 C           1.8673    1.8743    0.9018 C.3     1  LIG1        0.4616
     18 H           4.3918    4.8672    3.8550 H       1  LIG1        0.4449
@<TRIPOS>BOND
     1     5    17    1
     2     2    17    1
     3     4    17    1
     4    17    16    1
     5    12    11    1
     6     3    16    1
     7    16    15    1
     8    16     1    1
     9    14    13    1
    10    11    13    1
    11    11    15    1
    12    13     7    2
    13    15     6    2
    14    10     8    1
    15     7     8    1
    16     7    18    1
    17     9     8    1
