@<TRIPOS>MOLECULE
4348321.cif
 66 58 0 0 0
SMALL
GASTEIGER

@<TRIPOS>ATOM
      1 N           3.1228   15.4551   13.6866 N.pl3   1  LIG1       -0.3268
      2 H           3.7047   16.1135   13.6336 H       1  LIG1        0.1510
      3 C           3.4818   14.2888   14.2296 C.2     1  LIG1       -0.0086
      4 H           4.3639   14.1884   14.5675 H       1  LIG1        0.0779
      5 C           2.6198   13.2407   14.3119 C.2     1  LIG1       -0.0439
      6 H           2.9044   12.4222   14.6995 H       1  LIG1        0.0607
      7 C           1.2948   13.3685   13.8205 C.3     1  LIG1        0.0870
      8 C           0.9562   14.6288   13.2732 C.2     1  LIG1       -0.0439
      9 H           0.0792   14.7792   12.9406 H       1  LIG1        0.0607
     10 C           1.8774   15.6237   13.2226 C.2     1  LIG1       -0.0086
     11 H           1.6331   16.4618   12.8482 H       1  LIG1        0.0779
     12 N           0.4231   12.3493   13.8669 N.3     1  LIG1       -0.2941
     13 C           0.7710   11.0771   14.4967 C.3     1  LIG1       -0.0119
     14 H           1.6357   10.7681   14.1550 H       1  LIG1        0.0391
     15 H           0.0815   10.4116   14.2903 H       1  LIG1        0.0391
     16 H           0.8285   11.1979   15.4683 H       1  LIG1        0.0391
     17 C          -0.9657   12.5127   13.4603 C.3     1  LIG1       -0.0119
     18 H          -1.4666   12.9519   14.1797 H       1  LIG1        0.0391
     19 H          -1.3577   11.6339   13.2772 H       1  LIG1        0.0391
     20 H          -1.0063   13.0639   12.6502 H       1  LIG1        0.0391
     21 N          -1.1257   20.8318   13.8715 N.pl3   2  LIG2       -0.3411
     22 H          -0.5895   20.1388   13.7953 H       2  LIG2        0.1462
     23 C          -2.4047   20.7350   13.4920 C.2     2  LIG2       -0.0084
     24 H          -2.7223   19.9086   13.1469 H       2  LIG2        0.0779
     25 C          -3.2616   21.7819   13.5872 C.2     2  LIG2       -0.0274
     26 H          -4.1631   21.6829   13.3069 H       2  LIG2        0.0648
     27 C          -2.8162   23.0213   14.1038 C.2     2  LIG2        0.0282
     28 C          -1.4568   23.0836   14.4937 C.2     2  LIG2       -0.0409
     29 H          -1.1014   23.8931   14.8430 H       2  LIG2        0.0609
     30 C          -0.6600   21.9913   14.3700 C.3     2  LIG2        0.0624
     31 H           0.2493   22.0475   14.6417 H       2  LIG2        0.0564
     32 N          -3.6367   24.0757   14.2032 N.pl3   2  LIG2       -0.3362
     33 C          -5.0420   23.9710   13.8250 C.3     2  LIG2        0.0004
     34 H          -5.5078   23.3818   14.4553 H       2  LIG2        0.0428
     35 H          -5.1103   23.5998   12.9208 H       2  LIG2        0.0428
     36 H          -5.4535   24.8608   13.8448 H       2  LIG2        0.0428
     37 C          -3.2096   25.3161   14.8397 C.3     2  LIG2        0.0004
     38 H          -2.3933   25.6410   14.4058 H       2  LIG2        0.0428
     39 H          -3.0306   25.1521   15.7884 H       2  LIG2        0.0428
     40 H          -3.9163   25.9893   14.7523 H       2  LIG2        0.0428
     41 S           2.4079   19.0577   14.7651 S.3     3  LIG3        0.3796
     42 F           2.3098   20.5853   14.0669 F       3  LIG3       -0.0949
     43 F           2.4850   17.6670   15.6579 F       3  LIG3       -0.0949
     44 F           1.3157   19.5429   15.7450 F       3  LIG3       -0.0949
     45 F           3.6484   19.5562   15.5205 F       3  LIG3       -0.0949
     46 S           6.6828   17.1632   14.9204 S.3     4  LIG4        0.3796
     47 F           6.7601   18.4639   15.9308 F       4  LIG4       -0.0949
     48 F           6.5821   15.6995   14.1127 F       4  LIG4       -0.0949
     49 F           5.5495   16.6250   15.8241 F       4  LIG4       -0.0949
     50 F           7.8968   16.5824   15.6734 F       4  LIG4       -0.0949
     51 S           3.3404   19.2396   10.2160 S.3     5  LIG5        0.3796
     52 F           3.1258   18.1302    9.0378 F       5  LIG5       -0.0949
     53 F           3.5928   20.5446   11.2138 F       5  LIG5       -0.0949
     54 F           4.6046   19.6825    9.4708 F       5  LIG5       -0.0949
     55 F           2.3107   20.1155    9.4750 F       5  LIG5       -0.0949
     56 S           7.5475   17.1740    9.7994 S.3     6  LIG6        0.3796
     57 F           7.7741   15.6895   10.5363 F       6  LIG6       -0.0949
     58 F           7.3468   18.5073    8.8486 F       6  LIG6       -0.0949
     59 F           8.7718   16.8338    8.9240 F       6  LIG6       -0.0949
     60 F           6.4505   16.4950    8.9555 F       6  LIG6       -0.0949
     61 F           0.1234   18.5506   13.4617 F       7  LIG7        0.0000
     62 F           4.5124   17.6843   13.4402 F       8  LIG8        0.0000
     63 F           0.9208   18.3673   11.3213 F       9  LIG9       -0.2669
     64 F           5.2810   17.6759   11.2892 F      10  LIG10      -0.2669
     65 H           4.9882   17.7513   12.2460 H       4  LIG4        0.2669
     66 H           0.5048   18.4541   12.2757 H       3  LIG3        0.2669
@<TRIPOS>BOND
     1    58    56    1
     2    59    56    1
     3    60    56    1
     4    52    51    1
     5    54    51    1
     6    55    51    1
     7    56    57    1
     8    51    53    1
     9    64    65    1
    10    63    66    1
    11    20    17    1
    12    11    10    1
    13    35    33    1
    14     9     8    1
    15    24    23    1
    16    10     8    2
    17    10     1    1
    18     8     7    1
    19    19    17    1
    20    26    25    1
    21    17    12    1
    22    17    18    1
    23    23    25    2
    24    23    21    1
    25    25    27    1
    26     2     1    1
    27     1     3    1
    28    22    21    1
    29     7    12    1
    30     7     5    1
    31    33    36    1
    32    33    32    1
    33    33    34    1
    34    12    13    1
    35    21    30    1
    36    42    41    1
    37    27    32    1
    38    27    28    2
    39    48    46    1
    40    14    13    1
    41    32    37    1
    42     3     5    2
    43     3     4    1
    44    15    13    1
    45     5     6    1
    46    30    28    1
    47    30    31    1
    48    38    37    1
    49    28    29    1
    50    13    16    1
    51    40    37    1
    52    41    45    1
    53    41    43    1
    54    41    44    1
    55    37    39    1
    56    46    50    1
    57    46    49    1
    58    46    47    1
