@<TRIPOS>MOLECULE
C72 H8 Cl4
 84 114 0 0 0
SMALL
GASTEIGER

@<TRIPOS>ATOM
      1 CL          5.7242    4.5718    0.6449 Cl      1  LIG1       -0.0820
      2 C           6.9709    5.7605    0.5318 C.ar    1  LIG1        0.0592
      3 C           8.0276    5.7227    1.4267 C.ar    1  LIG1       -0.0420
      4 C           9.0228    6.6790    1.3614 C.ar    1  LIG1       -0.0603
      5 C           8.9647    7.6751    0.4030 C.ar    1  LIG1       -0.0603
      6 C           7.9127    7.7228   -0.4955 C.ar    1  LIG1       -0.0420
      7 C           6.9170    6.7544   -0.4356 C.ar    1  LIG1        0.0592
      8 CL          5.6151    6.8172   -1.5830 Cl      1  LIG1       -0.0820
      9 CL          7.9089    5.5443    7.7515 Cl      2  LIG2       -0.0820
     10 C           9.1992    4.9276    6.7541 C.ar    2  LIG2        0.0592
     11 C           9.0686    5.0776    5.2693 C.ar    2  LIG2       -0.0420
     12 C          10.0910    4.5025    4.5850 C.ar    2  LIG2       -0.0603
     13 C          11.1823    3.8391    5.1405 C.ar    2  LIG2       -0.0603
     14 C          11.2709    3.7683    6.5200 C.ar    2  LIG2       -0.0420
     15 C          10.2889    4.2767    7.3404 C.ar    2  LIG2        0.0592
     16 CL         10.4357    4.1446    9.0488 Cl      2  LIG2       -0.0820
     17 C           7.1834    8.7713    4.1930 C.ar    3  LIG3        0.0000
     18 C           6.8907    8.1177    5.4509 C.ar    3  LIG3        0.0000
     19 C           6.7399    8.8662    6.6071 C.ar    3  LIG3        0.0000
     20 C           5.6736    8.5386    7.5419 C.ar    3  LIG3        0.0000
     21 C           4.8177    7.4875    7.2860 C.ar    3  LIG3        0.0000
     22 C           4.9841    6.6968    6.0807 C.ar    3  LIG3        0.0000
     23 C           5.9898    7.0106    5.1840 C.ar    3  LIG3        0.0000
     24 C           5.7319    6.9791    3.7646 C.ar    3  LIG3        0.0000
     25 C           6.4685    8.0805    3.1565 C.ar    3  LIG3        0.0000
     26 C           5.9019    8.7890    2.0929 C.ar    3  LIG3        0.0000
     27 C           6.0385   10.2297    2.0438 C.ar    3  LIG3        0.0000
     28 C           4.8019   10.7689    1.5320 C.ar    3  LIG3        0.0000
     29 C           4.2972   11.9649    2.0384 C.ar    3  LIG3        0.0000
     30 C           5.0086   12.6731    3.0894 C.ar    3  LIG3        0.0000
     31 C           6.1904   12.1463    3.5758 C.ar    3  LIG3        0.0000
     32 C           6.7258   10.9011    3.0549 C.ar    3  LIG3        0.0000
     33 C           7.3054   10.1654    4.1548 C.ar    3  LIG3        0.0000
     34 C           7.1474   10.9409    5.3546 C.ar    3  LIG3        0.0000
     35 C           6.4537   12.1708    5.0116 C.ar    3  LIG3        0.0000
     36 C           5.5183   12.7107    5.8720 C.ar    3  LIG3        0.0000
     37 C           5.2262   12.0604    7.1280 C.ar    3  LIG3        0.0000
     38 C           5.8861   10.8816    7.4584 C.ar    3  LIG3        0.0000
     39 C           6.8728   10.3066    6.5617 C.ar    3  LIG3        0.0000
     40 C           5.1487    9.7868    8.0737 C.ar    3  LIG3        0.0000
     41 C           3.7792    9.9229    8.3169 C.ar    3  LIG3        0.0000
     42 C           3.0973   11.1485    7.9648 C.ar    3  LIG3        0.0000
     43 C           3.8027   12.1977    7.3803 C.ar    3  LIG3        0.0000
     44 C           3.2270   12.9404    6.2840 C.ar    3  LIG3        0.0000
     45 C           4.2782   13.2592    5.3419 C.ar    3  LIG3        0.0000
     46 C           4.0342   13.2340    3.9806 C.ar    3  LIG3        0.0000
     47 C           2.7140   12.8979    3.4978 C.ar    3  LIG3        0.0000
     48 C           2.8719   12.1053    2.2907 C.ar    3  LIG3        0.0000
     49 C           2.0107   11.0493    2.0311 C.ar    3  LIG3        0.0000
     50 C           2.5425    9.7956    1.5011 C.ar    3  LIG3        0.0000
     51 C           3.8996    9.6635    1.2597 C.ar    3  LIG3        0.0000
     52 C           4.5890    8.4459    1.6064 C.ar    3  LIG3        0.0000
     53 C           3.8843    7.3965    2.1927 C.ar    3  LIG3        0.0000
     54 C           4.4662    6.6456    3.2872 C.ar    3  LIG3        0.0000
     55 C           3.4074    6.3289    4.2293 C.ar    3  LIG3        0.0000
     56 C           3.6582    6.3497    5.5924 C.ar    3  LIG3        0.0000
     57 C           2.6773    6.9161    6.5000 C.ar    3  LIG3        0.0000
     58 C           3.3926    7.6237    7.5473 C.ar    3  LIG3        0.0000
     59 C           2.8861    8.8093    8.0429 C.ar    3  LIG3        0.0000
     60 C           1.6487    9.3575    7.5256 C.ar    3  LIG3        0.0000
     61 C           1.7780   10.8052    7.4802 C.ar    3  LIG3        0.0000
     62 C           1.2252   11.5057    6.4219 C.ar    3  LIG3        0.0000
     63 C           1.9534   12.6099    5.8175 C.ar    3  LIG3        0.0000
     64 C           1.7000   12.5798    4.3944 C.ar    3  LIG3        0.0000
     65 C           0.7931   11.4693    4.1204 C.ar    3  LIG3        0.0000
     66 C           0.5046   10.8134    5.3801 C.ar    3  LIG3        0.0000
     67 C           0.3732    9.4297    5.4291 C.ar    3  LIG3        0.0000
     68 C           0.9592    8.6923    6.5345 C.ar    3  LIG3        0.0000
     69 C           1.4896    7.4409    5.9936 C.ar    3  LIG3        0.0000
     70 C           1.2352    7.4239    4.5669 C.ar    3  LIG3        0.0000
     71 C           0.5409    8.6523    4.2184 C.ar    3  LIG3        0.0000
     72 C           0.8236    9.2752    3.0186 C.ar    3  LIG3        0.0000
     73 C           0.9499   10.7261    2.9641 C.ar    3  LIG3        0.0000
     74 C           1.7966    8.7137    2.1146 C.ar    3  LIG3        0.0000
     75 C           2.4594    7.5288    2.4522 C.ar    3  LIG3        0.0000
     76 C           2.1761    6.8723    3.7065 C.ar    3  LIG3        0.0000
     77 H           8.0552    5.0293    2.0729 H       1  LIG1        0.0633
     78 H           9.7446    6.6653    1.9785 H       1  LIG1        0.0618
     79 H           9.6329    8.3201    0.3721 H       1  LIG1        0.0618
     80 H           7.8521    8.3977   -1.1562 H       1  LIG1        0.0633
     81 H           8.3978    5.4938    4.8755 H       2  LIG2        0.0633
     82 H          10.0579    4.5526    3.6357 H       2  LIG2        0.0618
     83 H          11.8254    3.4582    4.5941 H       2  LIG2        0.0618
     84 H          12.0166    3.3693    6.9393 H       2  LIG2        0.0633
@<TRIPOS>BOND
     1     8     7    1
     2    80     6    1
     3     6     7   ar
     4     6     5   ar
     5     7     2   ar
     6    79     5    1
     7     5     4   ar
     8     2     1    1
     9     2     3   ar
    10    51    50   ar
    11    51    28   ar
    12    51    52   ar
    13     4     3   ar
    14     4    78    1
    15     3    77    1
    16    50    49   ar
    17    50    74   ar
    18    28    29   ar
    19    28    27   ar
    20    52    26   ar
    21    52    53   ar
    22    49    48   ar
    23    49    73   ar
    24    29    48   ar
    25    29    30   ar
    26    27    26   ar
    27    27    32   ar
    28    26    25   ar
    29    74    75   ar
    30    74    72   ar
    31    53    75   ar
    32    53    54   ar
    33    48    47   ar
    34    75    76   ar
    35    73    72   ar
    36    73    65   ar
    37    72    71   ar
    38    32    31   ar
    39    32    33   ar
    40    30    31   ar
    41    30    46   ar
    42    25    24   ar
    43    25    17   ar
    44    54    24   ar
    45    54    55   ar
    46    47    46   ar
    47    47    64   ar
    48    31    35   ar
    49    82    12    1
    50    76    55   ar
    51    76    70   ar
    52    24    23   ar
    53    46    45   ar
    54    65    64   ar
    55    65    66   ar
    56    33    17   ar
    57    33    34   ar
    58    17    18   ar
    59    71    70   ar
    60    71    67   ar
    61    55    56   ar
    62    64    63   ar
    63    70    69   ar
    64    12    13   ar
    65    12    11   ar
    66    83    13    1
    67    81    11    1
    68    35    34   ar
    69    35    36   ar
    70    13    14   ar
    71    23    18   ar
    72    23    22   ar
    73    11    10   ar
    74    45    36   ar
    75    45    44   ar
    76    34    39   ar
    77    66    67   ar
    78    66    62   ar
    79    67    68   ar
    80    18    19   ar
    81    56    22   ar
    82    56    57   ar
    83    63    44   ar
    84    63    62   ar
    85    36    37   ar
    86    69    57   ar
    87    69    68   ar
    88    22    21   ar
    89    44    43   ar
    90    62    61   ar
    91    57    58   ar
    92    14    84    1
    93    14    15   ar
    94    68    60   ar
    95    39    19   ar
    96    39    38   ar
    97    19    20   ar
    98    10    15   ar
    99    10     9    1
   100    37    43   ar
   101    37    38   ar
   102    21    20   ar
   103    21    58   ar
   104    15    16    1
   105    43    42   ar
   106    38    40   ar
   107    61    60   ar
   108    61    42   ar
   109    60    59   ar
   110    20    40   ar
   111    58    59   ar
   112    42    41   ar
   113    59    41   ar
   114    40    41   ar
