@<TRIPOS>MOLECULE
C22 H30 N O2 P
 112 114 0 0 0
SMALL
GASTEIGER

@<TRIPOS>ATOM
      1 P           1.3283    2.0006    0.8091 P.3     1  LIG1        0.2256
      2 O           0.7990    3.8289   -1.1629 O.2     1  LIG1       -0.2665
      3 O           1.3312    0.5064    0.8133 O.2     1  LIG1       -0.3018
      4 N           0.4840    1.6315   -1.6922 N.am    1  LIG1       -0.3063
      5 C           0.7631    2.6326   -0.8631 C.2     1  LIG1        0.2803
      6 C           0.1607    1.8292   -3.1085 C.3     1  LIG1        0.0179
      7 H           0.5763    2.6867   -3.4144 H       1  LIG1        0.0493
      8 C          -1.3355    1.9250   -3.3012 C.3     1  LIG1       -0.0469
      9 H          -1.6820    2.6865   -2.7926 H       1  LIG1        0.0247
     10 H          -1.7591    1.0996   -2.9846 H       1  LIG1        0.0247
     11 H          -1.5352    2.0496   -4.2527 H       1  LIG1        0.0247
     12 C           0.7763    0.6905   -3.8901 C.3     1  LIG1       -0.0469
     13 H           1.7511    0.7206   -3.7984 H       1  LIG1        0.0247
     14 H           0.5337    0.7739   -4.8358 H       1  LIG1        0.0247
     15 H           0.4428   -0.1632   -3.5405 H       1  LIG1        0.0247
     16 C           0.2946    2.5941    2.1740 C.ar    1  LIG1        0.0298
     17 C          -1.0784    2.8677    1.9818 C.ar    1  LIG1       -0.0388
     18 C          -1.8430    3.2295    3.0820 C.ar    1  LIG1       -0.0552
     19 H          -2.7606    3.4312    2.9473 H       1  LIG1        0.0623
     20 C          -1.3307    3.3114    4.3687 C.ar    1  LIG1       -0.0499
     21 C           0.0009    2.9491    4.5404 C.ar    1  LIG1       -0.0552
     22 H           0.3633    2.9514    5.4190 H       1  LIG1        0.0623
     23 C           0.8179    2.5871    3.4878 C.ar    1  LIG1       -0.0388
     24 C          -1.7793    2.7301    0.6505 C.3     1  LIG1       -0.0390
     25 H          -2.7482    2.7570    0.7866 H       1  LIG1        0.0278
     26 H          -1.5313    1.8771    0.2364 H       1  LIG1        0.0278
     27 H          -1.5116    3.4669    0.0616 H       1  LIG1        0.0278
     28 C          -2.1881    3.7073    5.5379 C.3     1  LIG1       -0.0397
     29 H          -1.7381    4.4105    6.0509 H       1  LIG1        0.0278
     30 H          -2.3365    2.9272    6.1125 H       1  LIG1        0.0278
     31 H          -3.0501    4.0427    5.2112 H       1  LIG1        0.0278
     32 C           2.2305    2.1446    3.8209 C.3     1  LIG1       -0.0390
     33 H           2.2698    1.8522    4.7556 H       1  LIG1        0.0278
     34 H           2.8481    2.8939    3.6867 H       1  LIG1        0.0278
     35 H           2.4872    1.4008    3.2353 H       1  LIG1        0.0278
     36 C           2.9690    2.7768    0.8965 C.ar    1  LIG1        0.0298
     37 C           3.1273    4.1188    1.3278 C.ar    1  LIG1       -0.0388
     38 C           4.4194    4.6100    1.5397 C.ar    1  LIG1       -0.0552
     39 H           4.5289    5.5018    1.8469 H       1  LIG1        0.0623
     40 C           5.5417    3.8350    1.3148 C.ar    1  LIG1       -0.0499
     41 C           5.3741    2.5619    0.7855 C.ar    1  LIG1       -0.0552
     42 H           6.1438    2.0508    0.5660 H       1  LIG1        0.0623
     43 C           4.1124    2.0092    0.5664 C.ar    1  LIG1       -0.0388
     44 C           1.9915    5.0810    1.5707 C.3     1  LIG1       -0.0390
     45 H           2.3069    5.9988    1.4386 H       1  LIG1        0.0278
     46 H           1.6658    4.9756    2.4888 H       1  LIG1        0.0278
     47 H           1.2638    4.8914    0.9428 H       1  LIG1        0.0278
     48 C           6.9057    4.3870    1.6320 C.3     1  LIG1       -0.0397
     49 H           7.5751    3.9441    1.0703 H       1  LIG1        0.0278
     50 H           7.1126    4.2240    2.5762 H       1  LIG1        0.0278
     51 H           6.9179    5.3506    1.4572 H       1  LIG1        0.0278
     52 C           4.0489    0.6322   -0.0659 C.3     1  LIG1       -0.0390
     53 H           4.9459    0.3658   -0.3568 H       1  LIG1        0.0278
     54 H           3.4483    0.6547   -0.8382 H       1  LIG1        0.0278
     55 H           3.7134   -0.0125    0.5903 H       1  LIG1        0.0278
     56 P           1.2402    8.6303    6.3678 P.3     2  LIG2        0.2256
     57 O           0.8258    6.8495    8.3953 O.2     2  LIG2       -0.2665
     58 O           1.2144   10.1227    6.3192 O.2     2  LIG2       -0.3018
     59 N           0.3243    9.0211    8.8616 N.am    2  LIG2       -0.3063
     60 C           0.6987    8.0265    8.0640 C.2     2  LIG2        0.2803
     61 C          -0.0604    8.8080   10.2630 C.3     2  LIG2        0.0179
     62 H           0.4082    7.9916   10.6001 H       2  LIG2        0.0493
     63 C           0.4053    9.9962   11.0739 C.3     2  LIG2       -0.0469
     64 H           1.3784   10.0834   10.9956 H       2  LIG2        0.0247
     65 H           0.1634    9.8649   12.0143 H       2  LIG2        0.0247
     66 H          -0.0245   10.8101   10.7377 H       2  LIG2        0.0247
     67 C          -1.5542    8.5838   10.3737 C.3     2  LIG2       -0.0469
     68 H          -1.8089    7.8064    9.8350 H       2  LIG2        0.0247
     69 H          -2.0293    9.3767   10.0485 H       2  LIG2        0.0247
     70 H          -1.7909    8.4217   11.3108 H       2  LIG2        0.0247
     71 C           2.8910    7.8820    6.2420 C.ar    2  LIG2        0.0298
     72 C           4.0309    8.6776    6.5059 C.ar    2  LIG2       -0.0388
     73 C           5.2824    8.1620    6.2118 C.ar    2  LIG2       -0.0552
     74 H           6.0476    8.6964    6.3919 H       2  LIG2        0.0623
     75 C           5.4701    6.8925    5.6621 C.ar    2  LIG2       -0.0499
     76 C           4.3443    6.0892    5.5166 C.ar    2  LIG2       -0.0552
     77 H           4.4558    5.1995    5.2012 H       2  LIG2        0.0623
     78 C           3.0645    6.5384    5.8146 C.ar    2  LIG2       -0.0388
     79 C           3.9604   10.0622    7.1140 C.3     2  LIG2       -0.0390
     80 H           4.8585   10.3419    7.3906 H       2  LIG2        0.0278
     81 H           3.3674   10.0468    7.8935 H       2  LIG2        0.0278
     82 H           3.6127   10.6929    6.4492 H       2  LIG2        0.0278
     83 C           6.8154    6.3970    5.2356 C.3     2  LIG2       -0.0397
     84 H           6.8869    5.4391    5.4290 H       2  LIG2        0.0278
     85 H           7.5131    6.8823    5.7256 H       2  LIG2        0.0278
     86 H           6.9297    6.5448    4.2741 H       2  LIG2        0.0278
     87 C           1.9410    5.5359    5.6626 C.3     2  LIG2       -0.0390
     88 H           2.2893    4.6304    5.8073 H       2  LIG2        0.0278
     89 H           1.5645    5.6013    4.7599 H       2  LIG2        0.0278
     90 H           1.2425    5.7249    6.3231 H       2  LIG2        0.0278
     91 C           0.2097    7.9576    5.0354 C.ar    2  LIG2        0.0298
     92 C           0.7261    7.9996    3.7186 C.ar    2  LIG2       -0.0388
     93 C          -0.0818    7.5420    2.6737 C.ar    2  LIG2       -0.0552
     94 H           0.2611    7.5671    1.7882 H       2  LIG2        0.0623
     95 C          -1.3576    7.0547    2.8748 C.ar    2  LIG2       -0.0499
     96 C          -1.8570    7.0895    4.1595 C.ar    2  LIG2       -0.0552
     97 H          -2.7462    6.7886    4.3114 H       2  LIG2        0.0623
     98 C          -1.1139    7.5477    5.2459 C.ar    2  LIG2       -0.0388
     99 C           2.0915    8.5419    3.3464 C.3     2  LIG2       -0.0390
    100 H           2.0780    8.8532    2.4172 H       2  LIG2        0.0278
    101 H           2.7622    7.8330    3.4431 H       2  LIG2        0.0278
    102 H           2.3204    9.2883    3.9389 H       2  LIG2        0.0278
    103 C          -2.1917    6.5485    1.7280 C.3     2  LIG2       -0.0397
    104 H          -3.0160    6.1480    2.0762 H       2  LIG2        0.0278
    105 H          -1.6860    5.8723    1.2308 H       2  LIG2        0.0278
    106 H          -2.4151    7.2930    1.1334 H       2  LIG2        0.0278
    107 C          -1.8113    7.6366    6.5968 C.3     2  LIG2       -0.0390
    108 H          -2.7747    7.5119    6.4764 H       2  LIG2        0.0278
    109 H          -1.6425    8.5159    6.9951 H       2  LIG2        0.0278
    110 H          -1.4633    6.9386    7.1900 H       2  LIG2        0.0278
    111 H           0.2012    9.7507    8.5254 H       2  LIG2        0.1494
    112 H           0.3300    0.8367   -1.3325 H       1  LIG1        0.1494
@<TRIPOS>BOND
     1    14    12    1
     2    11     8    1
     3    12    13    1
     4    12    15    1
     5    12     6    1
     6     7     6    1
     7     8     6    1
     8     8    10    1
     9     8     9    1
    10     6     4    1
    11     4   112    1
    12     4     5   am
    13     2     5    2
    14     5     1    1
    15    54    52    1
    16    53    52    1
    17    52    43    1
    18    52    55    1
    19    27    24    1
    20    26    24    1
    21    42    41    1
    22    43    41   ar
    23    43    36   ar
    24    24    25    1
    25    24    17    1
    26    41    40   ar
    27     1     3    2
    28     1    36    1
    29     1    16    1
    30    36    37   ar
    31    47    44    1
    32    49    48    1
    33   106   103    1
    34   105   103    1
    35    40    38   ar
    36    40    48    1
    37    37    38   ar
    38    37    44    1
    39    45    44    1
    40    51    48    1
    41    38    39    1
    42    44    46    1
    43    48    50    1
    44   103   104    1
    45   103    95    1
    46    94    93    1
    47    17    16   ar
    48    17    18   ar
    49    16    23   ar
    50   100    99    1
    51    93    95   ar
    52    93    92   ar
    53    95    96   ar
    54    19    18    1
    55    18    20   ar
    56    35    32    1
    57    99   101    1
    58    99    92    1
    59    99   102    1
    60    23    32    1
    61    23    21   ar
    62    34    32    1
    63    92    91   ar
    64    32    33    1
    65    96    97    1
    66    96    98   ar
    67    86    83    1
    68    20    21   ar
    69    20    28    1
    70    21    22    1
    71    89    87    1
    72    91    98   ar
    73    91    56    1
    74    77    76    1
    75    31    28    1
    76    83    84    1
    77    83    75    1
    78    83    85    1
    79    98   107    1
    80    76    75   ar
    81    76    78   ar
    82    28    29    1
    83    28    30    1
    84    75    73   ar
    85    87    88    1
    86    87    78    1
    87    87    90    1
    88    78    71   ar
    89    73    74    1
    90    73    72   ar
    91    71    56    1
    92    71    72   ar
    93    58    56    2
    94    56    60    1
    95    82    79    1
    96   108   107    1
    97    72    79    1
    98   107   109    1
    99   107   110    1
   100    79    80    1
   101    79    81    1
   102    60    57    2
   103    60    59   am
   104   111    59    1
   105    59    61    1
   106    68    67    1
   107    69    67    1
   108    61    67    1
   109    61    62    1
   110    61    63    1
   111    67    70    1
   112    66    63    1
   113    64    63    1
   114    63    65    1
