@<TRIPOS>MOLECULE
?
 136 140 0 0 0
SMALL
GASTEIGER

@<TRIPOS>ATOM
      1 C          11.4747    4.0482   26.6753 C.3     1  LIG1        0.0749
      2 H          10.6492    3.9017   27.1852 H       1  LIG1        0.0543
      3 C          12.6920    3.7186   27.5206 C.3     1  LIG1        0.1134
      4 H          12.4961    3.8201   28.4640 H       1  LIG1        0.0717
      5 H          12.9917    2.8098   27.3570 H       1  LIG1        0.0717
      6 C          13.0721    5.7494   26.5990 C.2     1  LIG1        0.4097
      7 C          10.6748    6.3752   26.1649 C.2     1  LIG1        0.2299
      8 C          10.9943    7.8217   25.8821 C.3     1  LIG1        0.0588
      9 H          11.9633    7.9516   25.9500 H       1  LIG1        0.0416
     10 C          10.3005    8.7106   26.9153 C.3     1  LIG1       -0.0401
     11 H           9.3444    8.5525   26.8689 H       1  LIG1        0.0273
     12 H          10.4556    9.6394   26.6808 H       1  LIG1        0.0273
     13 C          10.7693    8.4859   28.3686 C.3     1  LIG1       -0.0552
     14 H          10.1804    8.9736   28.9657 H       1  LIG1        0.0263
     15 H          10.6876    7.5421   28.5813 H       1  LIG1        0.0263
     16 C          12.1370    8.9037   28.6167 C.3     1  LIG1       -0.0653
     17 H          12.1743    9.8625   28.6658 H       1  LIG1        0.0230
     18 H          12.6990    8.5991   27.8996 H       1  LIG1        0.0230
     19 H          12.4425    8.5275   29.4429 H       1  LIG1        0.0230
     20 C          11.4222    3.3224   25.3556 C.3     1  LIG1       -0.0052
     21 H          10.6258    3.6021   24.8784 H       1  LIG1        0.0332
     22 H          12.1918    3.5838   24.8266 H       1  LIG1        0.0332
     23 C          11.4094    1.8260   25.4843 C.ar    1  LIG1       -0.0455
     24 C          10.2784    1.1685   25.9345 C.ar    1  LIG1       -0.0585
     25 H           9.5170    1.6579   26.1463 H       1  LIG1        0.0620
     26 C          10.2690   -0.1997   26.0727 C.ar    1  LIG1       -0.0615
     27 H           9.5018   -0.6242   26.3835 H       1  LIG1        0.0618
     28 C          11.3534   -0.9322   25.7619 C.ar    1  LIG1       -0.0617
     29 H          11.3371   -1.8560   25.8627 H       1  LIG1        0.0618
     30 C          12.4693   -0.3163   25.3038 C.ar    1  LIG1       -0.0615
     31 H          13.2167   -0.8223   25.0775 H       1  LIG1        0.0618
     32 C          12.5055    1.0553   25.1702 C.ar    1  LIG1       -0.0585
     33 H          13.2809    1.4665   24.8621 H       1  LIG1        0.0620
     34 C          10.5396    8.1796   24.4427 C.3     1  LIG1        0.0625
     35 H           9.5776    8.3644   24.4721 H       1  LIG1        0.0557
     36 C          10.7681    7.0677   23.4284 C.ar    1  LIG1       -0.0264
     37 C           9.7012    6.4152   22.8661 C.ar    1  LIG1       -0.0568
     38 H           8.8395    6.6948   23.0733 H       1  LIG1        0.0621
     39 C           9.8714    5.3715   22.0072 C.ar    1  LIG1       -0.0614
     40 H           9.1322    4.9520   21.6282 H       1  LIG1        0.0618
     41 C          11.1307    4.9454   21.7073 C.ar    1  LIG1       -0.0617
     42 H          11.2508    4.2180   21.1401 H       1  LIG1        0.0618
     43 C          12.2035    5.5729   22.2308 C.ar    1  LIG1       -0.0614
     44 H          13.0605    5.3016   21.9936 H       1  LIG1        0.0618
     45 C          12.0332    6.6299   23.1279 C.ar    1  LIG1       -0.0568
     46 H          12.7736    7.0344   23.5205 H       1  LIG1        0.0621
     47 C          10.7786   10.3185   23.1606 C.2     1  LIG1        0.4012
     48 C           8.7940   10.8945   21.8428 C.3     1  LIG1        0.1068
     49 C           7.4625   10.2153   21.7727 C.3     1  LIG1       -0.0253
     50 H           7.0205   10.2902   22.6234 H       1  LIG1        0.0268
     51 H           7.5872    9.2882   21.5573 H       1  LIG1        0.0268
     52 H           6.9261   10.6331   21.0965 H       1  LIG1        0.0268
     53 C           8.6926   12.2944   22.3508 C.3     1  LIG1       -0.0253
     54 H           9.5520   12.7188   22.2935 H       1  LIG1        0.0268
     55 H           8.4023   12.2827   23.2669 H       1  LIG1        0.0268
     56 H           8.0583   12.7837   21.8218 H       1  LIG1        0.0268
     57 C           9.4948   10.8046   20.4802 C.3     1  LIG1       -0.0253
     58 H           9.6639    9.8841   20.2676 H       1  LIG1        0.0268
     59 H          10.3262   11.2823   20.5184 H       1  LIG1        0.0268
     60 H           8.9328   11.1908   19.8067 H       1  LIG1        0.0268
     61 C           4.8646    8.0697   24.8421 C.3     2  LIG2        0.0749
     62 H           4.2338    7.6403   25.4565 H       2  LIG2        0.0543
     63 C           6.2731    7.8983   25.3420 C.3     2  LIG2        0.1134
     64 H           6.2696    7.5687   26.2527 H       2  LIG2        0.0717
     65 H           6.7535    7.2658   24.7857 H       2  LIG2        0.0717
     66 C           5.9536   10.1371   25.1085 C.2     2  LIG2        0.4097
     67 C           3.5004   10.1421   24.8141 C.2     2  LIG2        0.2299
     68 C           3.4071   11.6302   24.6221 C.3     2  LIG2        0.0588
     69 H           4.1522   12.0414   25.1102 H       2  LIG2        0.0416
     70 C           2.1140   12.2161   25.1729 C.3     2  LIG2       -0.0401
     71 H           2.0883   13.1649   24.9766 H       2  LIG2        0.0273
     72 H           1.3619   11.8000   24.7230 H       2  LIG2        0.0273
     73 C           1.9624   12.0180   26.6617 C.3     2  LIG2       -0.0552
     74 H           1.1217   12.4159   26.9371 H       2  LIG2        0.0263
     75 H           1.9029   11.0659   26.8362 H       2  LIG2        0.0263
     76 C           3.0468   12.5823   27.5179 C.3     2  LIG2       -0.0653
     77 H           3.0934   13.5328   27.3897 H       2  LIG2        0.0230
     78 H           3.8863   12.1845   27.2752 H       2  LIG2        0.0230
     79 H           2.8579   12.3909   28.4395 H       2  LIG2        0.0230
     80 C           4.6407    7.5620   23.4224 C.3     2  LIG2       -0.0052
     81 H           3.7301    7.7685   23.1579 H       2  LIG2        0.0332
     82 H           5.2365    8.0398   22.8225 H       2  LIG2        0.0332
     83 C           4.8693    6.0989   23.2615 C.ar    2  LIG2       -0.0455
     84 C           4.2501    5.1867   24.0604 C.ar    2  LIG2       -0.0585
     85 H           3.6718    5.4864   24.7257 H       2  LIG2        0.0620
     86 C           4.4588    3.8218   23.9132 C.ar    2  LIG2       -0.0615
     87 H           4.0297    3.2109   24.4667 H       2  LIG2        0.0618
     88 C           5.3158    3.3940   22.9261 C.ar    2  LIG2       -0.0617
     89 H           5.4767    2.4852   22.8116 H       2  LIG2        0.0618
     90 C           5.9222    4.2912   22.1163 C.ar    2  LIG2       -0.0615
     91 H           6.4993    3.9966   21.4509 H       2  LIG2        0.0618
     92 C           5.6971    5.6145   22.2717 C.ar    2  LIG2       -0.0585
     93 H           6.1134    6.2138   21.6964 H       2  LIG2        0.0620
     94 C           3.6426   11.8865   23.0804 C.3     2  LIG2        0.0625
     95 H           4.5160   11.4970   22.8661 H       2  LIG2        0.0557
     96 C           3.7406   13.3497   22.7677 C.ar    2  LIG2       -0.0264
     97 C           4.9450   13.9722   22.8852 C.ar    2  LIG2       -0.0568
     98 H           5.6878   13.4878   23.1660 H       2  LIG2        0.0621
     99 C           5.0768   15.3288   22.5853 C.ar    2  LIG2       -0.0614
    100 H           5.9070   15.7400   22.6698 H       2  LIG2        0.0618
    101 C           3.9994   16.0546   22.1763 C.ar    2  LIG2       -0.0617
    102 H           4.0880   16.9584   21.9772 H       2  LIG2        0.0618
    103 C           2.7996   15.4404   22.0617 C.ar    2  LIG2       -0.0614
    104 H           2.0568   15.9264   21.7863 H       2  LIG2        0.0618
    105 C           2.6725   14.0987   22.3535 C.ar    2  LIG2       -0.0568
    106 H           1.8411   13.6926   22.2662 H       2  LIG2        0.0621
    107 C           3.0713   10.4201   21.2235 C.2     2  LIG2        0.4012
    108 C           2.2014    8.9220   19.5188 C.3     2  LIG2        0.1068
    109 C           2.8252    9.6511   18.3643 C.3     2  LIG2       -0.0253
    110 H           2.3122   10.4367   18.1653 H       2  LIG2        0.0268
    111 H           2.8392    9.0768   17.5927 H       2  LIG2        0.0268
    112 H           3.7231    9.9024   18.5906 H       2  LIG2        0.0268
    113 C           0.7754    8.5175   19.2341 C.3     2  LIG2       -0.0253
    114 H           0.2845    9.2782   18.9124 H       2  LIG2        0.0268
    115 H           0.3685    8.1879   20.0385 H       2  LIG2        0.0268
    116 H           0.7661    7.8267   18.5661 H       2  LIG2        0.0268
    117 C           3.0048    7.7252   19.9622 C.3     2  LIG2       -0.0253
    118 H           2.9150    7.0227   19.3132 H       2  LIG2        0.0268
    119 H           2.6818    7.4189   20.8102 H       2  LIG2        0.0268
    120 H           3.9295    7.9715   20.0385 H       2  LIG2        0.0268
    121 O          13.6843    4.6707   27.0958 O.3     1  LIG1       -0.4481
    122 N          11.2170    9.4164   24.0765 N.am    1  LIG1       -0.2736
    123 O           6.8958    9.1933   25.2784 O.3     2  LIG2       -0.4481
    124 N           2.6690   11.1775   22.2750 N.am    2  LIG2       -0.2736
    125 N          11.7231    5.4913   26.4874 N.am    1  LIG1       -0.2005
    126 O          13.6785    6.7364   26.2996 O.2     1  LIG1       -0.2258
    127 O           9.5485    5.9474   26.1447 O.2     1  LIG1       -0.2747
    128 O          11.4351   11.2457   22.7677 O.2     1  LIG1       -0.2265
    129 O           9.5146   10.0529   22.8162 O.3     1  LIG1       -0.4447
    130 N           4.7317    9.5334   24.9209 N.am    2  LIG2       -0.2005
    131 O           6.2242   11.3106   25.1274 O.2     2  LIG2       -0.2258
    132 O           2.5093    9.4305   24.7996 O.2     2  LIG2       -0.2747
    133 O           4.2233   10.2819   20.9021 O.2     2  LIG2       -0.2265
    134 O           2.0172    9.8441   20.6545 O.3     2  LIG2       -0.4447
    135 H          12.1965    9.6377   24.1967 H       1  LIG1        0.1526
    136 H           1.7257   11.1192   22.3617 H       2  LIG2        0.1526
@<TRIPOS>BOND
     1   111   109    1
     2   110   109    1
     3   109   112    1
     4   109   108    1
     5   116   113    1
     6   114   113    1
     7   113   108    1
     8   113   115    1
     9   118   117    1
    10   108   117    1
    11   108   134    1
    12    60    57    1
    13   117   120    1
    14   117   119    1
    15    58    57    1
    16    57    59    1
    17    57    48    1
    18   134   107    1
    19   133   107    2
    20    52    49    1
    21    42    41    1
    22   107   124   am
    23    91    90    1
    24    51    49    1
    25    40    39    1
    26    93    92    1
    27    41    39   ar
    28    41    43   ar
    29    49    48    1
    30    49    50    1
    31   104   103    1
    32    56    53    1
    33    48    53    1
    34    48   129    1
    35   102   101    1
    36    44    43    1
    37    39    37   ar
    38   103   101   ar
    39   103   105   ar
    40    90    92   ar
    41    90    88   ar
    42   101    99   ar
    43    43    45   ar
    44   106   105    1
    45    92    83   ar
    46   124   136    1
    47   124    94    1
    48    54    53    1
    49    53    55    1
    50   105    96   ar
    51    99   100    1
    52    99    97   ar
    53   128    47    2
    54    96    97   ar
    55    96    94    1
    56    89    88    1
    57   129    47    1
    58    82    80    1
    59    95    94    1
    60    37    38    1
    61    37    36   ar
    62    97    98    1
    63    88    86   ar
    64    94    68    1
    65    45    36   ar
    66    45    46    1
    67    81    80    1
    68    47   122   am
    69    83    80    1
    70    83    84   ar
    71    80    61    1
    72    36    34    1
    73    86    84   ar
    74    86    87    1
    75    84    85    1
    76   122   135    1
    77   122    34    1
    78    34    35    1
    79    34     8    1
    80    68    67    1
    81    68    69    1
    82    68    70    1
    83    72    70    1
    84    65    63    1
    85   132    67    2
    86    67   130   am
    87    22    20    1
    88    61   130    1
    89    61    63    1
    90    61    62    1
    91    33    32    1
    92    21    20    1
    93   130    66   am
    94    71    70    1
    95    31    30    1
    96    66   131    2
    97    66   123    1
    98    32    30   ar
    99    32    23   ar
   100    70    73    1
   101   123    63    1
   102    30    28   ar
   103    63    64    1
   104    20    23    1
   105    20     1    1
   106    23    24   ar
   107    28    29    1
   108    28    26   ar
   109     8     9    1
   110     8     7    1
   111     8    10    1
   112    24    26   ar
   113    24    25    1
   114    26    27    1
   115   127     7    2
   116     7   125   am
   117   126     6    2
   118   125     6   am
   119   125     1    1
   120     6   121    1
   121    73    75    1
   122    73    74    1
   123    73    76    1
   124     1     2    1
   125     1     3    1
   126    12    10    1
   127    11    10    1
   128    10    13    1
   129   121     3    1
   130    78    76    1
   131     5     3    1
   132    77    76    1
   133    76    79    1
   134     3     4    1
   135    18    16    1
   136    13    15    1
   137    13    16    1
   138    13    14    1
   139    16    17    1
   140    16    19    1
