@<TRIPOS>MOLECULE
?
 65 67 0 0 0
SMALL
GASTEIGER

@<TRIPOS>ATOM
      1 C           0.7328   21.5667    3.7588 C.2     1  LIG1        0.4097
      2 C          -1.3643   21.8799    2.9039 C.3     1  LIG1        0.1134
      3 H          -1.7648   21.0663    2.5603 H       1  LIG1        0.0717
      4 H          -1.7957   22.6408    2.4862 H       1  LIG1        0.0717
      5 C          -1.4946   21.9474    4.4067 C.3     1  LIG1        0.0749
      6 H          -2.1893   21.3250    4.7083 H       1  LIG1        0.0543
      7 C           0.0261   20.9378    6.0880 C.2     1  LIG1        0.2299
      8 C           1.4006   20.4577    6.4914 C.3     1  LIG1        0.0585
      9 H           2.0673   21.0261    6.0523 H       1  LIG1        0.0416
     10 C           1.5756   20.5930    8.0245 C.3     1  LIG1        0.0625
     11 H           0.8284   20.1274    8.4538 H       1  LIG1        0.0557
     12 C           2.8113   19.0210    9.4185 C.2     1  LIG1        0.4012
     13 C           4.1914   17.3198   10.4697 C.3     1  LIG1        0.1068
     14 C           4.0146   17.8303   11.8360 C.3     1  LIG1       -0.0253
     15 H           3.1347   18.2050   11.9261 H       1  LIG1        0.0268
     16 H           4.6702   18.5105   12.0100 H       1  LIG1        0.0268
     17 H           4.1237   17.1122   12.4625 H       1  LIG1        0.0268
     18 C           3.2909   16.2031   10.1601 C.3     1  LIG1       -0.0253
     19 H           3.4191   15.9324    9.2489 H       1  LIG1        0.0268
     20 H           2.3811   16.4810   10.2868 H       1  LIG1        0.0268
     21 H           3.4836   15.4663   10.7437 H       1  LIG1        0.0268
     22 C           5.6034   16.8914   10.1770 C.3     1  LIG1       -0.0253
     23 H           6.2049   17.6140   10.3742 H       1  LIG1        0.0268
     24 H           5.6802   16.6550    9.2498 H       1  LIG1        0.0268
     25 H           5.8262   16.1309   10.7205 H       1  LIG1        0.0268
     26 C          -1.7746   23.3422    4.9618 C.3     1  LIG1       -0.0052
     27 H          -2.6482   23.6265    4.6503 H       1  LIG1        0.0332
     28 H          -1.8139   23.2853    5.9292 H       1  LIG1        0.0332
     29 C          -0.7802   24.3872    4.5923 C.ar    1  LIG1       -0.0455
     30 C           0.3776   24.5489    5.3339 C.ar    1  LIG1       -0.0585
     31 H           0.5127   24.0168    6.0844 H       1  LIG1        0.0620
     32 C           1.3252   25.4664    4.9912 C.ar    1  LIG1       -0.0615
     33 H           2.1004   25.5534    5.4981 H       1  LIG1        0.0618
     34 C           1.1273   26.2559    3.9025 C.ar    1  LIG1       -0.0617
     35 H           1.7762   26.8737    3.6562 H       1  LIG1        0.0618
     36 C          -0.0154   26.1426    3.1672 C.ar    1  LIG1       -0.0615
     37 H          -0.1562   26.7019    2.4372 H       1  LIG1        0.0618
     38 C          -0.9606   25.2039    3.5072 C.ar    1  LIG1       -0.0585
     39 H          -1.7325   25.1230    2.9940 H       1  LIG1        0.0620
     40 C           1.5783   19.0167    5.9756 C.3     1  LIG1       -0.0427
     41 H           1.4931   19.0234    5.0091 H       1  LIG1        0.0271
     42 H           2.4776   18.7224    6.1871 H       1  LIG1        0.0271
     43 C           0.5975   18.0096    6.5387 C.3     1  LIG1       -0.0645
     44 H          -0.2974   18.2763    6.3147 H       1  LIG1        0.0230
     45 H           0.6908   17.9708    7.4935 H       1  LIG1        0.0230
     46 H           0.7771   17.1434    6.1639 H       1  LIG1        0.0230
     47 C           1.5421   22.0282    8.4743 C.ar    1  LIG1       -0.0264
     48 C           0.4460   22.5456    9.1195 C.ar    1  LIG1       -0.0568
     49 H          -0.2819   21.9918    9.2900 H       1  LIG1        0.0621
     50 C           0.3966   23.8611    9.5193 C.ar    1  LIG1       -0.0614
     51 H          -0.3546   24.1885    9.9584 H       1  LIG1        0.0618
     52 C           1.4621   24.6865    9.2659 C.ar    1  LIG1       -0.0617
     53 H           1.4290   25.5802    9.5184 H       1  LIG1        0.0618
     54 C           2.5777   24.1881    8.6385 C.ar    1  LIG1       -0.0614
     55 H           3.3086   24.7394    8.4779 H       1  LIG1        0.0618
     56 C           2.6099   22.8763    8.2512 C.ar    1  LIG1       -0.0568
     57 H           3.3692   22.5471    7.8273 H       1  LIG1        0.0621
     58 H           3.6058   20.1118    7.9960 H       1  LIG1        0.1526
     59 N          -0.1739   21.4508    4.8083 N.am    1  LIG1       -0.2005
     60 N           2.8119   19.9180    8.4225 N.am    1  LIG1       -0.2736
     61 O           1.9134   21.4108    3.7760 O.2     1  LIG1       -0.2258
     62 O           0.0552   21.8964    2.6529 O.3     1  LIG1       -0.4481
     63 O          -0.9296   20.8729    6.8323 O.2     1  LIG1       -0.2747
     64 O           1.8707   18.8111   10.1181 O.2     1  LIG1       -0.2265
     65 O           3.9949   18.4182    9.5220 O.3     1  LIG1       -0.4447
@<TRIPOS>BOND
     1    37    36    1
     2     4     2    1
     3     3     2    1
     4    62     2    1
     5    62     1    1
     6     2     5    1
     7    39    38    1
     8    36    38   ar
     9    36    34   ar
    10    38    29   ar
    11    35    34    1
    12     1    61    2
    13     1    59   am
    14    34    32   ar
    15     5     6    1
    16     5    59    1
    17     5    26    1
    18    29    26    1
    19    29    30   ar
    20    27    26    1
    21    59     7   am
    22    26    28    1
    23    32    30   ar
    24    32    33    1
    25    41    40    1
    26    30    31    1
    27    40    42    1
    28    40     8    1
    29    40    43    1
    30     9     8    1
    31     7     8    1
    32     7    63    2
    33    46    43    1
    34    44    43    1
    35     8    10    1
    36    43    45    1
    37    57    56    1
    38    58    60    1
    39    10    60    1
    40    10    11    1
    41    10    47    1
    42    56    47   ar
    43    56    54   ar
    44    60    12   am
    45    47    48   ar
    46    55    54    1
    47    54    52   ar
    48    48    49    1
    49    48    50   ar
    50    19    18    1
    51    24    22    1
    52    52    53    1
    53    52    50   ar
    54    12    65    1
    55    12    64    2
    56    50    51    1
    57    65    13    1
    58    18    20    1
    59    18    13    1
    60    18    21    1
    61    22    23    1
    62    22    13    1
    63    22    25    1
    64    13    14    1
    65    14    15    1
    66    14    16    1
    67    14    17    1
