@<TRIPOS>MOLECULE
2amino-3-nitropyridinium picrate
 34 34 0 0 0
SMALL
GASTEIGER

@<TRIPOS>ATOM
      1 N          15.4338    6.0711    0.9265 N.pl3   1  LIG1        0.0606
      2 N          17.9367    4.5055    3.1439 N.pl3   1  LIG1       -0.2106
      3 H          17.9915    4.0507    3.8722 H       1  LIG1        0.2976
      4 N          15.0805    2.4004    0.6215 N.pl3   2  LIG2        0.0600
      5 N          19.9375    2.3722   -0.5409 N.pl3   2  LIG2        0.0437
      6 N          15.6827    4.5173    3.4470 N.pl3   1  LIG1       -0.2496
      7 H          15.8051    4.0595    4.1657 H       1  LIG1        0.2882
      8 H          14.8864    4.7361    3.2066 H       1  LIG1        0.2882
      9 C          16.7155    4.8797    2.7155 C.2     1  LIG1        0.2849
     10 O          17.2305    3.0779   -1.1458 O.2     2  LIG2       -0.2870
     11 O          14.4029    5.8405    1.5250 O.2     1  LIG1       -0.1262
     12 O          14.7751    3.2220   -0.2014 O.2     2  LIG2       -0.1260
     13 C          17.4755    2.4651   -0.0902 C.2     2  LIG2        0.2256
     14 O          15.4684    6.6697   -0.1189 O.2     1  LIG1       -0.1262
     15 O          17.4095   -0.1138    4.1862 O.2     2  LIG2       -0.1261
     16 O          20.9782    1.7686   -0.3772 O.2     2  LIG2       -0.1303
     17 C          16.7491    1.3729    2.0084 C.2     2  LIG2        0.0021
     18 H          16.0662    1.1561    2.5998 H       2  LIG2        0.0664
     19 C          16.4846    2.0763    0.8574 C.2     2  LIG2        0.1735
     20 C          18.0465    0.9946    2.2680 C.2     2  LIG2        0.1275
     21 C          18.8031    2.0577    0.2980 C.3     2  LIG2        0.2449
     22 C          16.6891    5.6119    1.4936 C.2     1  LIG1        0.1950
     23 N          18.3243    0.1909    3.4489 N.pl3   2  LIG2        0.0563
     24 C          19.0755    1.3276    1.4265 C.2     2  LIG2       -0.0108
     25 H          19.9451    1.0620    1.6183 H       2  LIG2        0.0626
     26 C          17.8493    5.9252    0.8510 C.3     1  LIG1        0.0474
     27 H          17.8216    6.4247    0.0671 H       1  LIG1        0.0421
     28 C          19.0790    4.8020    2.4930 C.2     1  LIG1        0.0784
     29 H          19.8916    4.5126    2.8402 H       1  LIG1        0.1056
     30 O          19.8592    3.2488   -1.3587 O.2     2  LIG2       -0.1303
     31 O          14.2453    1.8359    1.2839 O.2     2  LIG2       -0.1260
     32 C          19.0645    5.5104    1.3511 C.2     1  LIG1       -0.0367
     33 H          19.8570    5.7157    0.9086 H       1  LIG1        0.0613
     34 O          19.4688   -0.1842    3.6139 O.2     2  LIG2       -0.1261
@<TRIPOS>BOND
     1    30     5    2
     2    10    13    2
     3     5    16    2
     4     5    21    1
     5    12     4    2
     6    14     1    2
     7    13    21    1
     8    13    19    1
     9    27    26    1
    10    21    24    1
    11     4    19    1
    12     4    31    2
    13    26    32    1
    14    26    22    1
    15    19    17    2
    16    33    32    1
    17     1    22    1
    18     1    11    2
    19    32    28    2
    20    24    25    1
    21    24    20    2
    22    22     9    2
    23    17    20    1
    24    17    18    1
    25    20    23    1
    26    28    29    1
    27    28     2    1
    28     9     2    1
    29     9     6    1
    30     2     3    1
    31     8     6    1
    32     6     7    1
    33    23    34    2
    34    23    15    2
