@<TRIPOS>MOLECULE
1,4-diazabicyclo[2.2.2]octane dihydrobromide monohydrate
 27 25 0 0 0
SMALL
GASTEIGER

@<TRIPOS>ATOM
      1 BR         -0.8166    4.6448    5.2688 Br      1  LIG1        0.0000
      2 N          -1.9329    5.2746    1.0811 N.4     2  LIG2        0.2464
      3 H          -2.5067    4.6090    0.8387 H       2  LIG2        0.2040
      4 N          -0.3658    7.0344    1.7623 N.4     2  LIG2        0.2464
      5 H           0.2103    7.6977    1.9979 H       2  LIG2        0.2040
      6 C          -1.5441    6.0570   -0.1687 C.3     2  LIG2        0.0097
      7 H          -1.0497    5.4901   -0.7837 H       2  LIG2        0.0868
      8 H          -2.3314    6.3929   -0.6231 H       2  LIG2        0.0868
      9 C          -0.6919    7.1813    0.2937 C.3     2  LIG2        0.0097
     10 H          -1.1563    8.0203    0.1462 H       2  LIG2        0.0868
     11 H           0.1308    7.1981   -0.2200 H       2  LIG2        0.0868
     12 C          -0.6508    4.6270    1.7123 C.3     2  LIG2        0.0097
     13 H          -0.8921    4.1371    2.5166 H       2  LIG2        0.0868
     14 H          -0.2513    4.0083    1.0861 H       2  LIG2        0.0868
     15 C           0.2964    5.6959    2.0435 C.3     2  LIG2        0.0097
     16 H           1.0984    5.6044    1.5067 H       2  LIG2        0.0868
     17 H           0.5475    5.6405    2.9797 H       2  LIG2        0.0868
     18 C          -2.6384    6.1786    2.0498 C.3     2  LIG2        0.0097
     19 H          -2.9909    5.6634    2.7966 H       2  LIG2        0.0868
     20 H          -3.3784    6.6312    1.6161 H       2  LIG2        0.0868
     21 C          -1.6132    7.1969    2.5497 C.3     2  LIG2        0.0097
     22 H          -1.9573    8.0973    2.4410 H       2  LIG2        0.0868
     23 H          -1.4297    7.0525    3.4915 H       2  LIG2        0.0868
     24 BR          2.2665    2.7941    2.6534 Br      3  LIG3        0.0000
     25 O           1.6359    2.5001    6.1368 O.3     4  HOH4       -0.4105
     26 H           1.7812    2.8648    5.3056 H       0  HOH0        0.2052
     27 H           0.8436    2.2028    6.4368 H       0  HOH0        0.2052
@<TRIPOS>BOND
     1     7     6    1
     2     8     6    1
     3    11     9    1
     4     6     9    1
     5     6     2    1
     6    10     9    1
     7     9     4    1
     8     3     2    1
     9     2    12    1
    10     2    18    1
    11    14    12    1
    12    16    15    1
    13    20    18    1
    14    12    15    1
    15    12    13    1
    16     4     5    1
    17     4    15    1
    18     4    21    1
    19    15    17    1
    20    18    21    1
    21    18    19    1
    22    22    21    1
    23    21    23    1
    24    26    25    1
    25    25    27    1
