@<TRIPOS>MOLECULE
C9 H21 O4 P
 13 12 0 0 0
SMALL
GASTEIGER

@<TRIPOS>ATOM
      1 P           4.8685    2.8103    2.6993 P.3     1  LIG1        0.1268
      2 O           4.8685    2.8103    4.2125 O.3     1  LIG1       -0.2031
      3 O           1.9017    7.0636    2.1698 O.3     1  LIG1       -0.3950
      4 C           4.6393    4.4618    2.0203 C.3     1  LIG1        0.0029
      5 C           3.2966    5.0876    2.3995 C.3     1  LIG1       -0.0233
      6 C           3.1798    6.5176    1.9155 C.3     1  LIG1        0.0446
      7 H           5.3626    5.0404    2.3403 H       1  LIG1        0.0340
      8 H           4.7039    4.4156    1.0430 H       1  LIG1        0.0340
      9 H           2.5718    4.5556    2.0102 H       1  LIG1        0.0291
     10 H           3.1963    5.0674    3.3739 H       1  LIG1        0.0291
     11 H           3.8589    7.0649    2.3634 H       1  LIG1        0.0557
     12 H           3.3565    6.5472    0.9520 H       1  LIG1        0.0557
     13 H           1.1927    6.5514    1.7263 H       1  LIG1        0.2094
@<TRIPOS>BOND
     1    12     6    1
     2     8     4    1
     3    13     3    1
     4     6     3    1
     5     6    11    1
     6     6     5    1
     7     9     5    1
     8     4     7    1
     9     4     5    1
    10     4     1    1
    11     5    10    1
    12     1     2    1
