@<TRIPOS>MOLECULE
?
 64 65 0 0 0
SMALL
GASTEIGER

@<TRIPOS>ATOM
      1 C           5.1659   12.2065   11.6859 C.ar    1  LIG1        0.0896
      2 C           4.0736   11.9235   12.4786 C.ar    1  LIG1        0.1780
      3 C           3.9563   10.7182   13.1310 C.ar    1  LIG1        0.2036
      4 C           4.9041    9.7086   13.0431 C.ar    1  LIG1        0.1936
      5 C           6.0248   10.0194   12.2426 C.ar    1  LIG1        0.2036
      6 C           6.1443   11.2312   11.6026 C.ar    1  LIG1        0.1780
      7 F           3.0933   12.8348   12.6421 F       1  LIG1       -0.2012
      8 F           2.8654   10.5038   13.9176 F       1  LIG1       -0.1985
      9 F           6.9845    9.0943   12.0807 F       1  LIG1       -0.1985
     10 F           7.2368   11.4322   10.8330 F       1  LIG1       -0.2012
     11 I           5.3439   14.0149   10.6379 I       1  LIG1       -0.0377
     12 O           4.8338    8.5228   13.6168 O.3     1  LIG1       -0.5018
     13 C          -3.0637   -0.1117   15.8331 C.ar    2  LIG2        0.0281
     14 H          -3.9052    0.2017   16.1431 H       2  LIG2        0.0830
     15 C          -2.2529    0.7772   15.1622 C.ar    2  LIG2       -0.0364
     16 H          -2.5386    1.6723   15.0141 H       2  LIG2        0.0639
     17 C          -1.0024    0.3486   14.7057 C.ar    2  LIG2       -0.0222
     18 C          -0.6730   -0.9819   14.9678 C.ar    2  LIG2       -0.0364
     19 H           0.1606   -1.3263   14.6702 H       2  LIG2        0.0639
     20 C          -1.5407   -1.8005   15.6557 C.ar    2  LIG2        0.0281
     21 H          -1.2748   -2.6942   15.8392 H       2  LIG2        0.0830
     22 C          -0.0554    1.2113   13.9792 C.2     2  LIG2       -0.0539
     23 H           0.7295    0.7940   13.6446 H       2  LIG2        0.0624
     24 C          -0.1875    2.5085   13.7464 C.2     2  LIG2       -0.0540
     25 H          -0.9686    2.9292   14.0841 H       2  LIG2        0.0624
     26 C           0.7673    3.3638   13.0107 C.ar    2  LIG2       -0.0248
     27 C           1.9898    2.8842   12.5218 C.ar    2  LIG2       -0.0511
     28 H           2.2295    1.9752   12.6560 H       2  LIG2        0.0625
     29 C           2.8418    3.7250   11.8478 C.ar    2  LIG2       -0.0194
     30 H           3.6687    3.3891   11.5224 H       2  LIG2        0.0654
     31 C           2.5157    5.0463   11.6381 C.ar    2  LIG2        0.1205
     32 C           1.3049    5.5557   12.1007 C.ar    2  LIG2       -0.0194
     33 H           1.0665    6.4636   11.9542 H       2  LIG2        0.0654
     34 C           0.4556    4.6909   12.7809 C.ar    2  LIG2       -0.0511
     35 H          -0.3731    5.0262   13.1032 H       2  LIG2        0.0625
     36 C           3.1443    7.1716   10.6664 C.3     2  LIG2        0.0896
     37 H           3.0418    7.6764   11.5116 H       2  LIG2        0.0696
     38 H           2.2945    7.2319   10.1621 H       2  LIG2        0.0696
     39 C           4.2686    7.7547    9.8521 C.3     2  LIG2       -0.0189
     40 H           4.3893    7.2143    9.0316 H       2  LIG2        0.0298
     41 H           5.1077    7.7050   10.3749 H       2  LIG2        0.0298
     42 C           4.0120    9.1972    9.4634 C.3     2  LIG2       -0.0528
     43 H           3.8801    9.7373   10.2824 H       2  LIG2        0.0264
     44 H           3.1815    9.2484    8.9267 H       2  LIG2        0.0264
     45 C           5.1785    9.7883    8.6476 C.3     2  LIG2       -0.0652
     46 H           6.0024    9.7426    9.1766 H       2  LIG2        0.0230
     47 H           4.9828   10.7222    8.4270 H       2  LIG2        0.0230
     48 H           5.2919    9.2747    7.8209 H       2  LIG2        0.0230
     49 N          -2.7457   -1.3892   16.0737 N.ar    2  LIG2       -0.2632
     50 O           3.4528    5.7973   10.9471 O.3     2  LIG2       -0.4920
     51 C           4.9543   17.2406    8.3268 C.3     3  LIG3        0.0477
     52 H           4.3418   17.7673    8.8990 H       3  LIG3        0.0560
     53 H           4.4133   16.7014    7.6975 H       3  LIG3        0.0560
     54 C           5.8668   18.1430    7.5819 C.3     3  LIG3       -0.0274
     55 H           5.4504   19.0273    7.4292 H       3  LIG3        0.0288
     56 H           6.1228   17.7514    6.7089 H       3  LIG3        0.0288
     57 C           7.0656   18.2517    8.5072 C.3     3  LIG3       -0.0274
     58 H           7.8915   18.4583    8.0014 H       3  LIG3        0.0288
     59 H           6.9247   18.9478    9.1966 H       3  LIG3        0.0288
     60 C           7.1301   16.8889    9.1180 C.3     3  LIG3        0.0477
     61 H           7.7139   16.2967    8.5813 H       3  LIG3        0.0560
     62 H           7.4901   16.9395   10.0387 H       3  LIG3        0.0560
     63 O           5.7817   16.3867    9.1334 O.3     3  LIG3       -0.3798
     64 H           4.0613    8.3604   14.0348 H       1  LIG1        0.2924
@<TRIPOS>BOND
     1    56    54    1
     2    55    54    1
     3    54    51    1
     4    54    57    1
     5    53    51    1
     6    48    45    1
     7    58    57    1
     8    51    52    1
     9    51    63    1
    10    47    45    1
    11    57    60    1
    12    57    59    1
    13    61    60    1
    14    45    46    1
    15    45    42    1
    16    44    42    1
    17    40    39    1
    18    60    63    1
    19    60    62    1
    20    42    39    1
    21    42    43    1
    22    39    41    1
    23    39    36    1
    24    38    36    1
    25    11     1    1
    26    36    50    1
    27    36    37    1
    28    10     6    1
    29    50    31    1
    30    30    29    1
    31     6     1   ar
    32     6     5   ar
    33    31    29   ar
    34    31    32   ar
    35     1     2   ar
    36    29    27   ar
    37    33    32    1
    38     9     5    1
    39    32    34   ar
    40     5     4   ar
    41     2     7    1
    42     2     3   ar
    43    27    28    1
    44    27    26   ar
    45    34    26   ar
    46    34    35    1
    47    26    24    1
    48     4     3   ar
    49     4    12    1
    50     3     8    1
    51    12    64    1
    52    23    22    1
    53    24    22    2
    54    24    25    1
    55    22    17    1
    56    19    18    1
    57    17    18   ar
    58    17    15   ar
    59    18    20   ar
    60    16    15    1
    61    15    13   ar
    62    20    21    1
    63    20    49   ar
    64    13    49   ar
    65    13    14    1
