@<TRIPOS>MOLECULE
6-amino-9-(2-carboxyethyl)-9H-purin-1-ium perchlorate
 36 31 0 0 0
SMALL
GASTEIGER

@<TRIPOS>ATOM
      1 C           2.8864    2.5045    4.3174 C.2     1  LIG1        0.1720
      2 H           2.5895    2.6535    3.4272 H       1  LIG1        0.1285
      3 C           2.9242    2.9745    6.4678 C.3     1  LIG1        0.2291
      4 C           3.8239    1.9844    6.7853 C.2     1  LIG1        0.1767
      5 C           4.3142    1.1778    5.7346 C.2     1  LIG1        0.2848
      6 C           3.4077    3.0246    8.5961 C.2     1  LIG1        0.0867
      7 H           3.4130    3.2940    9.5062 H       1  LIG1        0.1000
      8 C           1.7414    4.7669    7.7809 C.3     1  LIG1        0.0257
      9 H           1.5085    4.8787    8.7366 H       1  LIG1        0.0470
     10 H           0.9070    4.5764    7.2842 H       1  LIG1        0.0470
     11 C           2.3472    6.0622    7.2596 C.3     1  LIG1        0.0605
     12 H           2.8028    5.8802    6.3999 H       1  LIG1        0.0393
     13 H           1.6191    6.7098    7.0839 H       1  LIG1        0.0393
     14 C           3.3301    6.6840    8.2084 C.2     1  LIG1        0.3062
     15 N           3.7937    1.5092    4.5153 N.pl3   1  LIG1       -0.1946
     16 H           4.0615    1.0502    3.8137 H       1  LIG1        0.2991
     17 N           2.3927    3.2695    5.2497 N.2     1  LIG1       -0.2175
     18 N           5.1672    0.1825    5.8482 N.pl3   1  LIG1       -0.2496
     19 H           5.4059   -0.2751    5.1361 H       1  LIG1        0.2882
     20 H           5.4981   -0.0258    6.6365 H       1  LIG1        0.2882
     21 N           4.1278    2.0195    8.1299 N.2     1  LIG1       -0.2327
     22 N           2.6571    3.6344    7.6368 N.pl3   1  LIG1       -0.2875
     23 O           3.8106    7.8277    7.7618 O.3     1  LIG1       -0.4806
     24 O           3.6252    6.1937    9.2835 O.2     1  LIG1       -0.2510
     25 O           0.0089    1.5804    7.7059 O.3     2  HOH2       -0.4105
     26 O           7.3879    5.2998    5.5894 O.3     3  HOH3        0.0000
     27 O           7.5416    6.8843    8.0339 O.3     4  HOH4       -0.4105
     28 O           5.4375    4.5004    4.5516 O.3     1  LIG1       -0.1011
     29 O           6.7660    3.0473    5.7651 O.3     5  HOH5        0.0000
     30 O           5.5316    4.7039    6.8790 O.3     6  HOH6        0.0000
     31 CL          6.2685    4.3859    5.6980 Cl      1  LIG1        0.1011
     32 H          -0.5534    2.0059    7.2503 H       0  HOH0        0.2052
     33 H           7.3587    6.4333    7.3440 H       0  HOH0        0.2052
     34 H          -0.0358    1.7910    8.4918 H       0  HOH0        0.2052
     35 H           7.3899    7.6526    7.7539 H       0  HOH0        0.2052
     36 H           4.3869    8.2386    8.4216 H       1  LIG1        0.2951
@<TRIPOS>BOND
     1     2     1    1
     2    16    15    1
     3     1    15    1
     4     1    17    2
     5    15     5    1
     6    28    31    1
     7    19    18    1
     8    17     3    1
     9     5    18    1
    10     5     4    2
    11    18    20    1
    12    12    11    1
    13     3     4    1
    14     3    22    1
    15     4    21    1
    16    13    11    1
    17    32    25    1
    18    11     8    1
    19    11    14    1
    20    10     8    1
    21    33    27    1
    22    22     8    1
    23    22     6    1
    24    25    34    1
    25    35    27    1
    26    23    14    1
    27    23    36    1
    28     8     9    1
    29    21     6    2
    30    14    24    2
    31     6     7    1
