@<TRIPOS>MOLECULE
?
 18 18 0 0 0
SMALL
GASTEIGER

@<TRIPOS>ATOM
      1 N           3.2218    0.4157    0.5616 N.am    1  LIG1       -0.2845
      2 H           3.5393    0.4366    1.3603 H       1  LIG1        0.1548
      3 O           1.4112    0.9631   -0.6807 O.2     1  LIG1       -0.2758
      4 C           4.0771   -0.0720   -0.4386 C.ar    1  LIG1        0.0517
      5 C           3.8031    0.0147   -1.7945 C.ar    1  LIG1        0.0487
      6 H           3.0201    0.4428   -2.0597 H       1  LIG1        0.0848
      7 C           5.7266   -1.0738   -2.3543 C.ar    1  LIG1        0.0277
      8 H           6.2885   -1.4269   -3.0063 H       1  LIG1        0.0829
      9 C           6.0960   -1.1868   -1.0378 C.ar    1  LIG1       -0.0418
     10 H           6.8973   -1.5972   -0.8043 H       1  LIG1        0.0633
     11 C           5.2610   -0.6821   -0.0725 C.ar    1  LIG1       -0.0376
     12 H           5.4911   -0.7510    0.8260 H       1  LIG1        0.0637
     13 C           1.9482    0.8586    0.4076 C.2     1  LIG1        0.2141
     14 C           1.2295    1.2054    1.6762 C.3     1  LIG1        0.0125
     15 H           0.7571    2.0323    1.5604 H       1  LIG1        0.0323
     16 H           1.8658    1.2976    2.3889 H       1  LIG1        0.0323
     17 H           0.6065    0.5079    1.8921 H       1  LIG1        0.0323
     18 N           4.6021   -0.4823   -2.7381 N.ar    1  LIG1       -0.2614
@<TRIPOS>BOND
     1     8     7    1
     2    18     7   ar
     3    18     5   ar
     4     7     9   ar
     5     6     5    1
     6     5     4   ar
     7     9    10    1
     8     9    11   ar
     9     3    13    2
    10     4    11   ar
    11     4     1    1
    12    11    12    1
    13    13     1   am
    14    13    14    1
    15     1     2    1
    16    15    14    1
    17    14    17    1
    18    14    16    1
