@<TRIPOS>MOLECULE
amlodipine besylate dihydrate
 75 74 0 0 0
SMALL
GASTEIGER

@<TRIPOS>ATOM
      1 N           4.1545    7.7713   -1.9169 N.pl3   1  LIG1       -0.3187
      2 H           3.5138    7.6883   -2.4330 H       1  LIG1        0.1516
      3 C           5.3456    7.1779   -2.2677 C.2     1  LIG1        0.0448
      4 C           6.4165    7.2458   -1.4289 C.2     1  LIG1        0.0677
      5 C           6.3151    7.9060   -0.0549 C.3     1  LIG1        0.0521
      6 H           7.1283    8.4156    0.1026 H       1  LIG1        0.0452
      7 C           5.1019    8.8371   -0.0199 C.2     1  LIG1        0.0652
      8 C           4.0601    8.6740   -0.8766 C.2     1  LIG1        0.0157
      9 C           5.3484    6.5234   -3.6331 C.3     1  LIG1        0.0863
     10 H           6.0158    6.9629   -4.2191 H       1  LIG1        0.0623
     11 H           5.5893    5.5663   -3.5501 H       1  LIG1        0.0623
     12 O           4.0469    6.6522   -4.1936 O.3     1  LIG1       -0.3687
     13 C           3.9662    6.0396   -5.4765 C.3     1  LIG1        0.0878
     14 H           4.2508    5.0929   -5.4199 H       1  LIG1        0.0613
     15 H           4.5614    6.5075   -6.1141 H       1  LIG1        0.0613
     16 C           2.5320    6.1222   -5.9483 C.3     1  LIG1       -0.0114
     17 H           2.4481    5.6785   -6.8289 H       1  LIG1        0.0836
     18 H           1.9455    5.6453   -5.3079 H       1  LIG1        0.0836
     19 N           2.0890    7.5450   -6.0630 N.4     1  LIG1        0.2202
     20 H           2.0174    7.9079   -5.2321 H       1  LIG1        0.1995
     21 H           1.2817    7.5780   -6.4802 H       1  LIG1        0.1995
     22 H           2.6997    8.0144   -6.5465 H       1  LIG1        0.1995
     23 C           7.6715    6.5995   -1.8342 C.2     1  LIG1        0.3376
     24 O           7.8378    5.9429   -2.8393 O.2     1  LIG1       -0.2452
     25 O           8.6653    6.8024   -0.9418 O.3     1  LIG1       -0.4616
     26 C           9.9227    6.1583   -1.2896 C.3     1  LIG1        0.0900
     27 H          10.2135    6.4391   -2.1932 H       1  LIG1        0.0695
     28 H           9.8159    5.1737   -1.2844 H       1  LIG1        0.0695
     29 C          10.9411    6.5774   -0.2619 C.3     1  LIG1       -0.0306
     30 H          11.0311    7.5533   -0.2698 H       1  LIG1        0.0262
     31 H          11.8065    6.1681   -0.4734 H       1  LIG1        0.0262
     32 H          10.6483    6.2832    0.6264 H       1  LIG1        0.0262
     33 C           6.2341    6.8580    1.0594 C.ar    1  LIG1       -0.0168
     34 C           7.1468    6.7554    2.1149 C.ar    1  LIG1        0.0450
     35 C           7.0108    5.7880    3.1087 C.ar    1  LIG1       -0.0431
     36 H           7.6411    5.7441    3.8184 H       1  LIG1        0.0632
     37 C           5.9600    4.8925    3.0604 C.ar    1  LIG1       -0.0604
     38 H           5.8697    4.2287    3.7332 H       1  LIG1        0.0618
     39 C           5.0347    4.9656    2.0215 C.ar    1  LIG1       -0.0614
     40 H           4.3118    4.3514    1.9818 H       1  LIG1        0.0618
     41 C           5.1774    5.9410    1.0463 C.ar    1  LIG1       -0.0563
     42 H           4.5375    5.9885    0.3471 H       1  LIG1        0.0621
     43 CL          8.5068    7.8396    2.2591 Cl      1  LIG1       -0.0832
     44 C           5.0583    9.8885    1.0010 C.2     1  LIG1        0.3373
     45 O           5.9614    9.6684    1.9673 O.3     1  LIG1       -0.4646
     46 O           4.3325   10.8712    1.0224 O.2     1  LIG1       -0.2452
     47 C           6.0144   10.6470    3.0238 C.3     1  LIG1        0.0820
     48 H           6.3534   11.4940    2.6681 H       1  LIG1        0.0661
     49 H           6.6102   10.3294    3.7332 H       1  LIG1        0.0661
     50 H           5.1154   10.7828    3.3892 H       1  LIG1        0.0661
     51 C           2.7516    9.4055   -0.8440 C.3     1  LIG1       -0.0260
     52 H           2.5627    9.6943    0.0726 H       1  LIG1        0.0290
     53 H           2.0363    8.8101   -1.1534 H       1  LIG1        0.0290
     54 H           2.8013   10.1896   -1.4295 H       1  LIG1        0.0290
     55 S          -0.2886    2.4272    2.7325 S.3     2  LIG2        0.1396
     56 O           0.2420    1.7507    1.5464 O.2     2  LIG2       -0.1397
     57 O          -1.3645    1.6626    3.3463 O.3     2  LIG2       -0.0427
     58 O          -0.6403    3.8134    2.4583 O.2     2  LIG2       -0.1397
     59 C           1.0382    2.4558    3.9047 C.ar    2  LIG2        0.1196
     60 C           1.9392    3.5222    3.8867 C.ar    2  LIG2       -0.0343
     61 H           1.8174    4.2458    3.2835 H       2  LIG2        0.0637
     62 C           3.0170    3.5082    4.7667 C.ar    2  LIG2       -0.0599
     63 H           3.6380    4.2268    4.7651 H       2  LIG2        0.0618
     64 C           3.1867    2.4522    5.6452 C.ar    2  LIG2       -0.0616
     65 H           3.9259    2.4500    6.2419 H       2  LIG2        0.0618
     66 C           2.2856    1.3978    5.6607 C.ar    2  LIG2       -0.0599
     67 H           2.4086    0.6798    6.2703 H       2  LIG2        0.0618
     68 C           1.1989    1.3876    4.7823 C.ar    2  LIG2       -0.0343
     69 H           0.5818    0.6655    4.7840 H       2  LIG2        0.0637
     70 O           2.2126    2.9611    0.1647 O.3     3  HOH3       -0.4105
     71 H           2.9013    2.5232    0.2509 H       0  HOH0        0.2052
     72 H           1.6499    2.5650    0.6753 H       0  HOH0        0.2052
     73 O           1.8373    5.6435    0.1379 O.3     4  HOH4       -0.4105
     74 H           2.0865    4.8429    0.2114 H       0  HOH0        0.2052
     75 H           1.5416    5.6985   -0.6154 H       0  HOH0        0.2052
@<TRIPOS>BOND
     1    17    16    1
     2    22    19    1
     3    21    19    1
     4    15    13    1
     5    19    16    1
     6    19    20    1
     7    16    13    1
     8    16    18    1
     9    13    14    1
    10    13    12    1
    11    10     9    1
    12    12     9    1
    13     9    11    1
    14     9     3    1
    15    24    23    2
    16     2     1    1
    17     3     1    1
    18     3     4    2
    19    27    26    1
    20     1     8    1
    21    23     4    1
    22    23    25    1
    23    54    51    1
    24     4     5    1
    25    26    28    1
    26    26    25    1
    27    26    29    1
    28    53    51    1
    29     8    51    1
    30     8     7    2
    31    51    52    1
    32    75    73    1
    33    31    29    1
    34    30    29    1
    35    29    32    1
    36     5     7    1
    37     5     6    1
    38     5    33    1
    39     7    44    1
    40    73    74    1
    41    70    71    1
    42    70    72    1
    43    42    41    1
    44    44    46    2
    45    44    45    1
    46    41    33   ar
    47    41    39   ar
    48    33    34   ar
    49    56    55    2
    50    45    47    1
    51    40    39    1
    52    39    37   ar
    53    34    43    1
    54    34    35   ar
    55    58    55    2
    56    48    47    1
    57    55    57    1
    58    55    59    1
    59    47    50    1
    60    47    49    1
    61    37    35   ar
    62    37    38    1
    63    35    36    1
    64    61    60    1
    65    60    59   ar
    66    60    62   ar
    67    59    68   ar
    68    63    62    1
    69    62    64   ar
    70    68    69    1
    71    68    66   ar
    72    64    66   ar
    73    64    65    1
    74    66    67    1
