@<TRIPOS>MOLECULE
?
 44 45 0 0 0
SMALL
GASTEIGER

@<TRIPOS>ATOM
      1 C           2.5379    7.5352    9.3013 C.ar    1  LIG1        0.0674
      2 C           2.4232    8.0063   10.6100 C.ar    1  LIG1        0.0674
      3 C           2.6080    9.3605   10.8709 C.ar    1  LIG1        0.1755
      4 C           2.9136   10.2428    9.8646 C.ar    1  LIG1        0.1973
      5 C           3.0202    9.7970    8.5753 C.ar    1  LIG1        0.1973
      6 C           2.8370    8.4481    8.3002 C.ar    1  LIG1        0.1755
      7 C           1.4254   -4.5174    9.9305 C.ar    2  LIG2        0.0674
      8 C           1.1391   -4.8155   11.2624 C.ar    2  LIG2        0.0674
      9 C           0.8531   -6.1303   11.6254 C.ar    2  LIG2        0.1755
     10 C           0.8394   -7.1385   10.6927 C.ar    2  LIG2        0.1973
     11 C           1.1379   -6.8688    9.3814 C.ar    2  LIG2        0.1973
     12 C           1.4240   -5.5630    9.0094 C.ar    2  LIG2        0.1755
     13 C           3.3767    2.1745    7.9242 C.3     3  LIG3        0.0118
     14 H           4.1964    2.4688    8.3945 H       3  LIG3        0.0439
     15 H           3.4251    2.4981    6.9889 H       3  LIG3        0.0439
     16 C           3.2970    0.6286    7.9359 C.3     3  LIG3        0.0118
     17 H           3.2498    0.2921    7.0057 H       3  LIG3        0.0439
     18 H           4.1142    0.2589    8.3557 H       3  LIG3        0.0439
     19 C           1.0024    2.2465    7.8932 C.3     3  LIG3        0.0118
     20 H           1.0277    2.5182    6.9411 H       3  LIG3        0.0439
     21 H           0.1917    2.6382    8.3040 H       3  LIG3        0.0439
     22 C           0.9456    0.7135    7.9927 C.3     3  LIG3        0.0118
     23 H           0.1275    0.4471    8.4823 H       3  LIG3        0.0439
     24 H           0.8959    0.3275    7.0819 H       3  LIG3        0.0439
     25 C           2.1880    2.2846    9.9744 C.3     3  LIG3        0.0118
     26 H           1.3812    2.6301   10.4317 H       3  LIG3        0.0439
     27 H           2.9834    2.6359   10.4472 H       3  LIG3        0.0439
     28 C           2.1923    0.7411   10.0325 C.3     3  LIG3        0.0118
     29 H           3.0198    0.4287   10.4756 H       3  LIG3        0.0439
     30 H           1.4197    0.4276   10.5661 H       3  LIG3        0.0439
     31 N           2.1990    2.7501    8.5818 N.3     3  LIG3       -0.2987
     32 N           2.1161    0.1774    8.6813 N.3     3  LIG3       -0.2987
     33 F           2.4807    9.8539   12.1185 F       1  LIG1       -0.2013
     34 F           3.0934   11.5472   10.1404 F       1  LIG1       -0.1993
     35 F           3.3032   10.6579    7.5718 F       1  LIG1       -0.1993
     36 F           2.9706    8.0538    7.0146 F       1  LIG1       -0.2013
     37 F           0.5807   -6.4533   12.8994 F       2  LIG2       -0.2013
     38 F           0.5319   -8.4034   11.0486 F       2  LIG2       -0.1993
     39 F           1.1399   -7.8469    8.4711 F       2  LIG2       -0.1993
     40 F           1.7065   -5.3379    7.7106 F       2  LIG2       -0.2013
     41 I           2.3434    5.4790    8.7929 I       1  LIG1       -0.0396
     42 I           1.9895    6.7529   12.2253 I       1  LIG1       -0.0396
     43 I           1.8102   -2.5510    9.2342 I       2  LIG2       -0.0396
     44 I           1.1709   -3.3704   12.7700 I       2  LIG2       -0.0396
@<TRIPOS>BOND
     1    20    19    1
     2    15    13    1
     3    17    16    1
     4    36     6    1
     5    24    22    1
     6    35     5    1
     7    40    12    1
     8    19    22    1
     9    19    21    1
    10    19    31    1
    11    13    16    1
    12    13    14    1
    13    13    31    1
    14    16    18    1
    15    16    32    1
    16    22    23    1
    17    22    32    1
    18     6     5   ar
    19     6     1   ar
    20    39    11    1
    21     5     4   ar
    22    31    25    1
    23    32    28    1
    24    41     1    1
    25    12    11   ar
    26    12     7   ar
    27    43     7    1
    28     1     2   ar
    29    11    10   ar
    30     4    34    1
    31     4     3   ar
    32     7     8   ar
    33    25    28    1
    34    25    26    1
    35    25    27    1
    36    28    29    1
    37    28    30    1
    38     2     3   ar
    39     2    42    1
    40    10    38    1
    41    10     9   ar
    42     3    33    1
    43     8     9   ar
    44     8    44    1
    45     9    37    1
