@<TRIPOS>MOLECULE
?
 41 35 0 0 0
SMALL
GASTEIGER

@<TRIPOS>ATOM
      1 C           0.7229   11.6563    1.8643 C.3     1  LIG1        0.0279
      2 H           1.5552   12.0993    1.6394 H       1  LIG1        0.0454
      3 H           0.0485   12.3379    2.0098 H       1  LIG1        0.0454
      4 C           0.3005   10.7692    0.7214 C.3     1  LIG1        0.0277
      5 H          -0.5536   10.3579    0.9284 H       1  LIG1        0.0454
      6 H           0.1914   11.3022   -0.0809 H       1  LIG1        0.0454
      7 C           1.5048    8.9390    1.7159 C.3     1  LIG1        0.0302
      8 H           2.1771    8.2561    1.5622 H       1  LIG1        0.0456
      9 H           0.6763    8.4948    1.9541 H       1  LIG1        0.0456
     10 C           1.9497    9.8426    2.8707 C.3     1  LIG1        0.0362
     11 H           2.7871   10.2881    2.6243 H       1  LIG1        0.0487
     12 C           2.1795    9.0101    4.1368 C.3     1  LIG1       -0.0469
     13 H           2.5899    9.5583    4.8099 H       1  LIG1        0.0246
     14 H           2.7553    8.2701    3.9327 H       1  LIG1        0.0246
     15 H           1.3382    8.6813    4.4604 H       1  LIG1        0.0246
     16 N           1.2596   11.7934    4.1561 N.3     1  LIG1       -0.2675
     17 H           2.1008   12.0599    4.0425 H       1  LIG1        0.1370
     18 H           1.1816   11.3860    4.9435 H       1  LIG1        0.1370
     19 N           0.9016   10.8732    3.0970 N.3     1  LIG1       -0.2402
     20 N           1.3062    9.7208    0.4817 N.3     1  LIG1       -0.2428
     21 N           0.9092    8.8032   -0.5744 N.3     1  LIG1       -0.2677
     22 H           0.0704    8.5392   -0.4342 H       1  LIG1        0.1370
     23 H           0.9616    9.2207   -1.3581 H       1  LIG1        0.1370
     24 O           0.1123    6.7115    6.4107 O.3     2  HOH2       -0.4105
     25 H           0.1040    6.4945    5.5921 H       0  HOH0        0.2052
     26 H          -0.4792    7.2839    6.6022 H       0  HOH0        0.2052
     27 O          -0.7434    1.0839    4.7209 O.3     3  HOH3       -0.4105
     28 H          -0.0937    0.6105    4.5769 H       0  HOH0        0.2052
     29 H          -0.7085    1.3149    5.6285 H       0  HOH0        0.2052
     30 O          -0.5538    1.8010    7.3904 O.3     4  HOH4       -0.4105
     31 H          -0.2563    2.5524    7.4653 H       0  HOH0        0.2052
     32 H           0.0242    1.3377    7.9663 H       0  HOH0        0.2052
     33 O           0.1613    5.9830    3.6959 O.3     5  HOH5       -0.4105
     34 H          -0.3062    5.2316    3.5779 H       0  HOH0        0.2052
     35 H          -0.4652    6.5008    3.2722 H       0  HOH0        0.2052
     36 O           5.6779    9.8909    3.9980 O.3     6  HOH6       -0.4105
     37 H           6.5244   10.1688    3.7605 H       0  HOH0        0.2052
     38 H           5.4521    9.1687    3.5304 H       0  HOH0        0.2052
     39 O           1.1130   10.6664    7.0661 O.3     7  HOH7       -0.4105
     40 H           0.2431   10.4430    7.3919 H       0  HOH0        0.2052
     41 H           1.3689   11.4025    7.5626 H       0  HOH0        0.2052
@<TRIPOS>BOND
     1    23    21    1
     2    21    22    1
     3    21    20    1
     4     6     4    1
     5    20     4    1
     6    20     7    1
     7     4     5    1
     8     4     1    1
     9     8     7    1
    10     2     1    1
    11     7     9    1
    12     7    10    1
    13     1     3    1
    14     1    19    1
    15    11    10    1
    16    10    19    1
    17    10    12    1
    18    19    16    1
    19    35    33    1
    20    38    36    1
    21    34    33    1
    22    37    36    1
    23    14    12    1
    24    17    16    1
    25    12    15    1
    26    12    13    1
    27    16    18    1
    28    28    27    1
    29    27    29    1
    30    25    24    1
    31    24    26    1
    32    39    40    1
    33    39    41    1
    34    30    31    1
    35    30    32    1
