@<TRIPOS>MOLECULE
2,4,6-trinitrotoluene : thieno[3,2-b]thiophene
 33 34 0 0 0
SMALL
GASTEIGER

@<TRIPOS>ATOM
      1 S           2.2202    1.2903   11.4593 S.2     1  LIG1       -0.0961
      2 S           2.2037    2.0567    7.3814 S.2     1  LIG1       -0.0961
      3 O           5.1185   -0.8591   12.1094 O.2     2  LIG2       -0.1261
      4 O           5.9262    0.9773   12.9114 O.2     2  LIG2       -0.1261
      5 O           5.8693    4.9422   10.3601 O.2     2  LIG2       -0.1261
      6 O           5.6330    4.8745    8.2046 O.2     2  LIG2       -0.1261
      7 O           5.9602    0.5186    6.0300 O.2     2  LIG2       -0.1261
      8 O           4.5867   -0.8875    6.9562 O.2     2  LIG2       -0.1261
      9 N           5.5521    0.2743   11.9806 N.pl3   2  LIG2        0.0568
     10 N           5.7106    4.3325    9.3042 N.pl3   2  LIG2        0.0566
     11 N           5.3433    0.0705    6.9933 N.pl3   2  LIG2        0.0568
     12 C           5.6669   -1.4431    9.5085 C.3     2  LIG2       -0.0354
     13 H           4.7774   -1.8380    9.6194 H       2  LIG2        0.0279
     14 H           6.2397   -1.7123   10.2572 H       2  LIG2        0.0279
     15 H           6.0612   -1.7556    8.6678 H       2  LIG2        0.0279
     16 C           5.5511    0.0480    9.4818 C.ar    2  LIG2        0.0100
     17 C           5.5850    0.8725   10.6243 C.ar    2  LIG2        0.1334
     18 C           5.6381    2.2396   10.5924 C.ar    2  LIG2       -0.0008
     19 H           5.6784    2.7431   11.3966 H       2  LIG2        0.0663
     20 C           5.6320    2.8748    9.3560 C.ar    2  LIG2        0.1305
     21 C           5.5584    2.1480    8.1838 C.ar    2  LIG2       -0.0008
     22 H           5.5476    2.5817    7.3381 H       2  LIG2        0.0663
     23 C           5.5011    0.7858    8.2788 C.ar    2  LIG2        0.1334
     24 C           2.2092    2.1244    9.9453 C.ar    1  LIG1        0.0264
     25 C           2.2379    3.5129    9.5476 C.ar    1  LIG1       -0.0404
     26 H           2.2541    4.2569   10.1387 H       1  LIG1        0.0634
     27 C           2.2388    3.5813    8.1725 C.ar    1  LIG1       -0.0227
     28 H           2.2571    4.4054    7.6998 H       1  LIG1        0.0694
     29 C           2.1916    1.2226    8.8943 C.ar    1  LIG1        0.0264
     30 C           2.1807   -0.1728    9.2868 C.ar    1  LIG1       -0.0404
     31 H           2.1683   -0.9178    8.6968 H       1  LIG1        0.0634
     32 C           2.1917   -0.2326   10.6605 C.ar    1  LIG1       -0.0227
     33 H           2.1835   -1.0552   11.1344 H       1  LIG1        0.0694
@<TRIPOS>BOND
     1     7    11    2
     2     8    11    2
     3    11    23    1
     4    22    21    1
     5     2    27   ar
     6     2    29   ar
     7    28    27    1
     8    27    25   ar
     9    21    23   ar
    10    21    20   ar
    11     6    10    2
    12    23    16   ar
    13    15    12    1
    14    31    30    1
    15    29    30   ar
    16    29    24   ar
    17    30    32   ar
    18    10    20    1
    19    10     5    2
    20    20    18   ar
    21    16    12    1
    22    16    17   ar
    23    12    13    1
    24    12    14    1
    25    25    24   ar
    26    25    26    1
    27    24     1   ar
    28    18    17   ar
    29    18    19    1
    30    17     9    1
    31    32    33    1
    32    32     1   ar
    33     9     3    2
    34     9     4    2
