@<TRIPOS>MOLECULE
C20 H29 B N2 O2
 54 57 0 0 0
SMALL
GASTEIGER

@<TRIPOS>ATOM
      1 O           1.3149    3.8988    6.8469 O.3     1  LIG1        0.0000
      2 O          -4.9920    5.7002    7.7786 O.3     1  LIG1        0.0000
      3 N          -0.6042    3.8474    4.4175 N.4     1  LIG1        1.0000
      4 N          -0.2271    7.7609    9.6780 N.ar    1  LIG1        0.0000
      5 C           3.8661    4.8865    2.3908 C.3     1  LIG1        0.0000
      6 C           2.9653    4.0102    3.2590 C.3     1  LIG1        0.0000
      7 C           1.4635    4.1942    3.0087 C.3     1  LIG1        0.0000
      8 C           0.6570    3.2223    3.9011 C.3     1  LIG1        0.0000
      9 C           0.9132    5.6048    3.2666 C.3     1  LIG1        0.0000
     10 C          -0.5036    5.6676    2.6906 C.3     1  LIG1        0.0000
     11 C          -1.3163    4.4911    3.2495 C.3     1  LIG1        0.0000
     12 C           0.8257    5.8658    4.7752 C.3     1  LIG1        0.0000
     13 C          -0.2758    4.9813    5.3788 C.3     1  LIG1        0.0000
     14 C           0.0326    4.4955    6.8075 C.3     1  LIG1        0.0000
     15 C          -0.0635    5.6643    7.7847 C.ar    1  LIG1        0.0000
     16 C           1.0532    6.2278    8.3338 C.ar    1  LIG1        0.0000
     17 C           0.9211    7.2657    9.2767 C.ar    1  LIG1        0.0000
     18 C          -1.3415    6.1485    8.2025 C.ar    1  LIG1        0.0000
     19 C          -2.5715    5.6088    7.7501 C.ar    1  LIG1        0.0000
     20 C          -3.7613    6.1424    8.1845 C.ar    1  LIG1        0.0000
     21 C          -3.7801    7.2309    9.0767 C.ar    1  LIG1        0.0000
     22 C          -2.6118    7.7530    9.5424 C.ar    1  LIG1        0.0000
     23 C          -1.3620    7.2277    9.1319 C.ar    1  LIG1        0.0000
     24 C          -5.0090    4.7565    6.7062 C.3     1  LIG1        0.0000
     25 B          -1.5744    2.7154    5.0341 B       1  LIG1        0.0000
     26 H           4.8038    4.7089    2.6112 H       1  LIG1        0.0000
     27 H           3.6629    5.8304    2.5582 H       1  LIG1        0.0000
     28 H           3.7078    4.6814    1.4460 H       1  LIG1        0.0000
     29 H           3.1532    4.2089    4.2104 H       1  LIG1        0.0000
     30 H           3.1985    3.0621    3.0992 H       1  LIG1        0.0000
     31 H           1.2790    3.9616    2.0541 H       1  LIG1        0.0000
     32 H           0.4280    2.4131    3.3782 H       1  LIG1        0.0000
     33 H           1.2182    2.9416    4.6672 H       1  LIG1        0.0000
     34 H           1.4957    6.2901    2.8296 H       1  LIG1        0.0000
     35 H          -0.4695    5.6147    1.7023 H       1  LIG1        0.0000
     36 H          -0.9327    6.5237    2.9412 H       1  LIG1        0.0000
     37 H          -2.2047    4.8146    3.5427 H       1  LIG1        0.0000
     38 H          -1.4553    3.8189    2.5365 H       1  LIG1        0.0000
     39 H           0.6182    6.8197    4.9396 H       1  LIG1        0.0000
     40 H           1.6945    5.6591    5.2025 H       1  LIG1        0.0000
     41 H          -1.0957    5.5492    5.4408 H       1  LIG1        0.0000
     42 H          -0.6477    3.8083    7.0646 H       1  LIG1        0.0000
     43 H           1.9153    5.9202    8.0813 H       1  LIG1        0.0000
     44 H           1.7156    7.6325    9.6465 H       1  LIG1        0.0000
     45 H          -2.5731    4.8759    7.1450 H       1  LIG1        0.0000
     46 H          -4.6096    7.6019    9.3542 H       1  LIG1        0.0000
     47 H          -2.6350    8.4813   10.1515 H       1  LIG1        0.0000
     48 H          -5.9354    4.5123    6.5010 H       1  LIG1        0.0000
     49 H          -4.5091    3.9553    6.9681 H       1  LIG1        0.0000
     50 H          -4.5932    5.1560    5.9137 H       1  LIG1        0.0000
     51 H          -2.3947    3.1361    5.3689 H       1  LIG1        0.0000
     52 H          -1.1171    2.2598    5.7718 H       1  LIG1        0.0000
     53 H          -1.8007    2.0643    4.3381 H       1  LIG1        0.0000
     54 H           1.3708    3.4014    7.5214 H       1  LIG1        0.0000
@<TRIPOS>BOND
     1    28     5    1
     2    35    10    1
     3    31     7    1
     4     5    27    1
     5     5    26    1
     6     5     6    1
     7    38    11    1
     8    10    36    1
     9    10    11    1
    10    10     9    1
    11    34     9    1
    12     7     6    1
    13     7     9    1
    14     7     8    1
    15    30     6    1
    16    11    37    1
    17    11     3    1
    18     6    29    1
    19     9    12    1
    20    32     8    1
    21     8     3    1
    22     8    33    1
    23    53    25    1
    24     3    25    1
    25     3    13    1
    26    12    39    1
    27    12    40    1
    28    12    13    1
    29    25    51    1
    30    25    52    1
    31    13    41    1
    32    13    14    1
    33    50    24    1
    34    48    24    1
    35    24    49    1
    36    24     2    1
    37    14     1    1
    38    14    42    1
    39    14    15    1
    40     1    54    1
    41    45    19    1
    42    19    20   ar
    43    19    18   ar
    44     2    20    1
    45    15    18   ar
    46    15    16   ar
    47    43    16    1
    48    20    21   ar
    49    18    23   ar
    50    16    17   ar
    51    21    46    1
    52    21    22   ar
    53    23    22   ar
    54    23     4   ar
    55    17    44    1
    56    17     4   ar
    57    22    47    1
