@<TRIPOS>MOLECULE
?
 27 23 0 0 0
SMALL
GASTEIGER

@<TRIPOS>ATOM
      1 I           6.6989    1.0758    6.5684 I       1  LIG1        0.0422
      2 CL          9.2242    1.0746    6.7902 Cl      1  LIG1       -0.0422
      3 I           5.3700    0.8236   10.4633 I       2  LIG2        0.0422
      4 CL          7.8054    0.9491   10.4861 Cl      2  LIG2       -0.0422
      5 C           3.0082    1.2159    2.5700 C.3     1  LIG1        0.0155
      6 H           2.9827    1.4414    1.6167 H       1  LIG1        0.0901
      7 N           4.7517   -0.4727    2.1478 N.4     1  LIG1        0.2347
      8 H           4.7482   -0.3089    1.2631 H       1  LIG1        0.2018
      9 H           4.9626   -1.3392    2.2691 H       1  LIG1        0.2018
     10 C           3.3977   -0.2149    2.7002 C.3     1  LIG1        0.0102
     11 H           3.3810   -0.4659    3.6366 H       1  LIG1        0.0870
     12 H           2.7505   -0.7658    2.2320 H       1  LIG1        0.0870
     13 C           5.4093    1.8269    2.6710 C.3     1  LIG1        0.0078
     14 H           6.0560    2.3717    3.1459 H       1  LIG1        0.0867
     15 H           5.4293    2.0824    1.7358 H       1  LIG1        0.0867
     16 C           1.6335    1.4654    3.1527 C.3     1  LIG1       -0.0167
     17 H           0.9847    0.9386    2.6800 H       1  LIG1        0.0286
     18 H           1.4139    2.3958    3.0685 H       1  LIG1        0.0286
     19 H           1.6302    1.2197    4.0812 H       1  LIG1        0.0286
     20 N           4.0445    2.0726    3.2268 N.4     1  LIG1        0.2364
     21 H           3.8293    2.9391    3.1100 H       1  LIG1        0.2020
     22 H           4.0507    1.9058    4.1104 H       1  LIG1        0.2020
     23 C           5.7789    0.3810    2.8035 C.3     1  LIG1        0.0076
     24 H           6.6430    0.2262    2.3914 H       1  LIG1        0.0867
     25 H           5.8462    0.1473    3.7432 H       1  LIG1        0.0867
     26 CL          4.1544    1.0453    6.2998 Cl      2  LIG2        0.0000
     27 CL          2.6834    0.5766   10.3691 Cl      3  LIG3        0.0000
@<TRIPOS>BOND
     1     8     7    1
     2     6     5    1
     3    15    13    1
     4     7     9    1
     5     7    10    1
     6     7    23    1
     7    12    10    1
     8    24    23    1
     9     5    10    1
    10     5    16    1
    11     5    20    1
    12    13    23    1
    13    13    14    1
    14    13    20    1
    15    17    16    1
    16    10    11    1
    17    23    25    1
    18    18    16    1
    19    21    20    1
    20    16    19    1
    21    20    22    1
    22     1     2    1
    23     3     4    1
