@<TRIPOS>MOLECULE
[H3N(CH2)2NH3](cdm)2
 34 31 0 0 0
SMALL
GASTEIGER

@<TRIPOS>ATOM
      1 O           5.9369    5.0498    0.8117 O.2     1  LIG1       -0.2731
      2 O           5.4544    1.5370    1.2907 O.2     2  LIG2       -0.2731
      3 N           7.5642    3.4948    0.7968 N.am    1  LIG1       -0.3271
      4 N           7.2454    8.1237    1.7663 N.1     1  LIG1       -0.1943
      5 N          10.5192    5.1626    2.0187 N.1     1  LIG1       -0.1943
      6 N           3.8062    3.0408    1.0505 N.am    2  LIG2       -0.3271
      7 N           0.7509    1.1400    1.2044 N.1     2  LIG2       -0.1943
      8 N           4.1018   -1.6132    2.0282 N.1     2  LIG2       -0.1943
      9 N           4.1841    6.8690    1.8520 N.4     3  LIG3        0.2223
     10 N           4.5438    5.2734    5.2430 N.4     3  LIG3        0.2223
     11 C           8.0720    5.7217    1.5239 C.3     1  LIG1        0.2566
     12 C           7.1439    4.7511    1.0388 C.2     1  LIG1        0.2479
     13 C           7.6342    7.0451    1.6647 C.1     1  LIG1        0.0971
     14 C           9.4140    5.4189    1.8098 C.1     1  LIG1        0.0971
     15 C           3.2571    0.7403    1.4825 C.3     2  LIG2        0.2566
     16 C           4.2240    1.7816    1.2758 C.2     2  LIG2        0.2479
     17 C           1.8819    0.9557    1.3550 C.1     2  LIG2        0.0971
     18 C           3.7133   -0.5560    1.7796 C.1     2  LIG2        0.0971
     19 C           4.2900    6.7855    3.3281 C.3     3  LIG3        0.0056
     20 H           3.4734    7.1626    3.7416 H       3  LIG3        0.0866
     21 H           5.0653    7.3182    3.6368 H       3  LIG3        0.0866
     22 C           4.4602    5.3442    3.7601 C.3     3  LIG3        0.0056
     23 H           3.6914    4.8072    3.4427 H       3  LIG3        0.0866
     24 H           5.2842    4.9708    3.3605 H       3  LIG3        0.0866
     25 H           6.9187    2.8505    0.7211 H       1  LIG1        0.1450
     26 H           4.4795    3.7250    0.9492 H       2  LIG2        0.1450
     27 H           4.2026    7.7793    1.6392 H       3  LIG3        0.1996
     28 H           3.7774    5.6329    5.6132 H       3  LIG3        0.1996
     29 H           8.3842    3.2446    0.9521 H       1  LIG1        0.1450
     30 H           2.9770    3.2446    1.1079 H       2  LIG2        0.1450
     31 H           4.9416    6.3824    1.4210 H       3  LIG3        0.1996
     32 H           5.3095    5.7816    5.5579 H       3  LIG3        0.1996
     33 H           3.3702    6.4664    1.5683 H       3  LIG3        0.1996
     34 H           4.6196    4.3723    5.4885 H       3  LIG3        0.1996
@<TRIPOS>BOND
     1    25     3    1
     2     3    29    1
     3     3    12   am
     4     1    12    2
     5    26     6    1
     6    12    11    1
     7     6    30    1
     8     6    16   am
     9     7    17    3
    10    16     2    2
    11    16    15    1
    12    17    15    1
    13    31     9    1
    14    15    18    1
    15    11    13    1
    16    11    14    1
    17    33     9    1
    18    27     9    1
    19    13     4    3
    20    18     8    3
    21    14     5    3
    22     9    19    1
    23    19    21    1
    24    19    20    1
    25    19    22    1
    26    24    22    1
    27    23    22    1
    28    22    10    1
    29    10    34    1
    30    10    32    1
    31    10    28    1
