@<TRIPOS>MOLECULE
C8 H12 N4, C12 H4 N4, C1 H4 O1
 48 46 0 0 0
SMALL
GASTEIGER

@<TRIPOS>ATOM
      1 O           3.7420    3.6822    6.2333 O.3     1  LIG1       -0.3982
      2 N           7.7283    1.2633    7.4089 N.pl3   1  LIG1       -0.3251
      3 N           5.8105    1.9586    6.6990 N.pl3   1  LIG1       -0.3183
      4 N           3.5286   -0.9761   16.5843 N.1     2  LIG2       -0.1945
      5 N          -0.4092   -1.0355   14.7346 N.1     2  LIG2       -0.1945
      6 N           6.6826   -5.7472   10.4350 N.1     2  LIG2       -0.1945
      7 N           2.9508   -5.8488    8.3646 N.1     2  LIG2       -0.1945
      8 N           3.9559    2.5572   16.7986 N.1     3  LIG3       -0.1901
      9 N          -0.0583    2.7338   15.0031 N.1     3  LIG3       -0.1901
     10 C           6.9887    2.3524    7.1996 C.3     1  LIG1        0.1318
     11 C           5.8123    0.5779    6.5780 C.2     1  LIG1        0.0648
     12 C           7.0229    0.1445    7.0369 C.2     1  LIG1        0.0141
     13 C           2.8660   -1.3802   15.7269 C.1     2  LIG2        0.0921
     14 C           0.6882   -1.4098   14.6917 C.1     2  LIG2        0.0921
     15 C           2.0427   -1.8490   14.6614 C.3     2  LIG2        0.2027
     16 C           5.5737   -5.4146   10.4678 C.1     2  LIG2        0.0921
     17 C           3.4622   -5.4550    9.3216 C.1     2  LIG2        0.0921
     18 C           4.1953   -5.0189   10.4678 C.3     2  LIG2        0.2027
     19 C           2.5682   -2.6642   13.6275 C.ar    2  LIG2       -0.0109
     20 C           3.9421   -3.0714   13.6250 C.ar    2  LIG2       -0.0557
     21 C           1.7545   -3.0692   12.5154 C.ar    2  LIG2       -0.0557
     22 C           3.6425   -4.2289   11.5017 C.ar    2  LIG2       -0.0109
     23 C           2.2662   -3.8195   11.5004 C.ar    2  LIG2       -0.0557
     24 C           4.4562   -3.8228   12.6138 C.ar    2  LIG2       -0.0557
     25 C           3.2809    2.2852   15.9122 C.1     3  LIG3        0.1108
     26 C           1.0412    2.3915   14.9237 C.1     3  LIG3        0.1108
     27 C           2.4082    1.9472   14.8140 C.2     3  LIG3        0.1358
     28 C           2.8414    1.2069   13.7259 C.2     3  LIG3        0.0118
     29 C           4.2039    0.7311   13.6326 C.2     3  LIG3       -0.0521
     30 C           4.6125    0.0067   12.5734 C.2     3  LIG3       -0.0611
     31 C           7.3818    3.7491    7.4518 C.3     1  LIG1       -0.0234
     32 C           3.6155    4.4799    5.0775 C.3     1  LIG1        0.0330
     33 H           8.6193    1.2654    7.7632 H       1  LIG1        0.1477
     34 H           5.0904    2.5389    6.4695 H       1  LIG1        0.1483
     35 H           3.4994    4.1319    7.0193 H       1  LIG1        0.2090
     36 H           7.3189   -0.7632    7.0899 H       1  LIG1        0.0798
     37 H           4.5095   -2.8074   14.3500 H       2  LIG2        0.0621
     38 H           0.8356   -2.8063   12.4890 H       2  LIG2        0.0621
     39 H           1.6989   -4.0790   10.7754 H       2  LIG2        0.0621
     40 H           5.3750   -4.0891   12.6403 H       2  LIG2        0.0621
     41 H           4.8285    0.9426   14.3298 H       3  LIG3        0.0624
     42 H           5.5476   -0.2898   12.5571 H       3  LIG3        0.0618
     43 H           6.7844    4.1552    8.0721 H       1  LIG1        0.0268
     44 H           8.2673    3.7834    7.8073 H       1  LIG1        0.0268
     45 H           7.3636    4.2469    6.6360 H       1  LIG1        0.0268
     46 H           4.1689    5.2535    5.1582 H       1  LIG1        0.0521
     47 H           2.7062    4.7656    4.9830 H       1  LIG1        0.0521
     48 H           3.8693    3.9873    4.3135 H       1  LIG1        0.0521
@<TRIPOS>BOND
     1    48    32    1
     2    47    32    1
     3    32    46    1
     4    32     1    1
     5     1    35    1
     6    34     3    1
     7    11     3    1
     8    11    12    2
     9    45    31    1
    10     3    10    1
    11    12    36    1
    12    12     2    1
    13    10     2    1
    14    10    31    1
    15     2    33    1
    16    31    44    1
    17    31    43    1
    18     7    17    3
    19    17    18    1
    20     6    16    3
    21    16    18    1
    22    18    22    1
    23    39    23    1
    24    23    22   ar
    25    23    21   ar
    26    22    24   ar
    27    38    21    1
    28    21    19   ar
    29    42    30    1
    30    30    29    2
    31    24    40    1
    32    24    20   ar
    33    20    19   ar
    34    20    37    1
    35    19    15    1
    36    29    28    1
    37    29    41    1
    38    28    27    2
    39    15    14    1
    40    15    13    1
    41    14     5    3
    42    27    26    1
    43    27    25    1
    44    26     9    3
    45    13     4    3
    46    25     8    3
