@<TRIPOS>MOLECULE
C22 H46 O2
 70 69 0 0 0
SMALL
GASTEIGER

@<TRIPOS>ATOM
      1 O           1.8103    4.3072    1.0358 O.3     1  LIG1       -0.3950
      2 H           1.8357    5.1590    1.1764 H       1  LIG1        0.2094
      3 O           1.1774    3.4357   28.9401 O.3     1  LIG1       -0.3950
      4 H           0.8806    3.7296   29.6674 H       1  LIG1        0.2094
      5 C           0.4591    3.8943    1.1716 C.3     1  LIG1        0.0442
      6 H           0.4125    2.9300    1.0766 H       1  LIG1        0.0557
      7 H          -0.0651    4.2876    0.4567 H       1  LIG1        0.0557
      8 C          -0.1380    4.2847    2.4841 C.3     1  LIG1       -0.0297
      9 H          -1.0785    4.0481    2.4768 H       1  LIG1        0.0287
     10 H          -0.0805    5.2490    2.5736 H       1  LIG1        0.0287
     11 C           0.5106    3.6476    3.7043 C.3     1  LIG1       -0.0510
     12 H           0.3842    2.6869    3.6653 H       1  LIG1        0.0266
     13 H           1.4643    3.8225    3.6835 H       1  LIG1        0.0266
     14 C          -0.0594    4.1678    5.0008 C.3     1  LIG1       -0.0530
     15 H          -1.0108    3.9777    5.0171 H       1  LIG1        0.0265
     16 H           0.0465    5.1314    5.0202 H       1  LIG1        0.0265
     17 C           0.5693    3.5895    6.2522 C.3     1  LIG1       -0.0531
     18 H           0.4423    2.6281    6.2510 H       1  LIG1        0.0265
     19 H           1.5241    3.7608    6.2299 H       1  LIG1        0.0265
     20 C           0.0029    4.1541    7.5387 C.3     1  LIG1       -0.0531
     21 H          -0.9517    3.9835    7.5575 H       1  LIG1        0.0265
     22 H           0.1295    5.1155    7.5393 H       1  LIG1        0.0265
     23 C           0.6246    3.5830    8.7989 C.3     1  LIG1       -0.0531
     24 H           0.4899    2.6223    8.8065 H       1  LIG1        0.0265
     25 H           1.5803    3.7455    8.7762 H       1  LIG1        0.0265
     26 C           0.0615    4.1620   10.0794 C.3     1  LIG1       -0.0531
     27 H           0.2036    5.1213   10.0736 H       1  LIG1        0.0265
     28 H          -0.8964    4.0075   10.0948 H       1  LIG1        0.0265
     29 C           0.6643    3.5895   11.3423 C.3     1  LIG1       -0.0531
     30 H           1.6211    3.7514   11.3287 H       1  LIG1        0.0265
     31 H           0.5290    2.6296   11.3438 H       1  LIG1        0.0265
     32 C           0.0927    4.1613   12.6221 C.3     1  LIG1       -0.0531
     33 H           0.2309    5.1220   12.6230 H       1  LIG1        0.0265
     34 H          -0.8638    4.0031   12.6321 H       1  LIG1        0.0265
     35 C           0.6919    3.5874   13.8883 C.3     1  LIG1       -0.0531
     36 H           1.6490    3.7434   13.8781 H       1  LIG1        0.0265
     37 H           0.5508    2.6274   13.8932 H       1  LIG1        0.0265
     38 C           0.1138    4.1707   15.1673 C.3     1  LIG1       -0.0531
     39 H           0.2567    5.1307   15.1633 H       1  LIG1        0.0265
     40 H          -0.8432    4.0155   15.1754 H       1  LIG1        0.0265
     41 C           0.7129    3.5932   16.4323 C.3     1  LIG1       -0.0531
     42 H           1.6704    3.7492   16.4244 H       1  LIG1        0.0265
     43 H           0.5716    2.6332   16.4335 H       1  LIG1        0.0265
     44 C           0.1359    4.1736   17.7094 C.3     1  LIG1       -0.0531
     45 H          -0.8211    4.0176   17.7188 H       1  LIG1        0.0265
     46 H           0.2779    5.1336   17.7067 H       1  LIG1        0.0265
     47 C           0.7385    3.5932   18.9769 C.3     1  LIG1       -0.0531
     48 H           0.5968    2.6332   18.9769 H       1  LIG1        0.0265
     49 H           1.6962    3.7484   18.9648 H       1  LIG1        0.0265
     50 C           0.1666    4.1700   20.2543 C.3     1  LIG1       -0.0531
     51 H          -0.7894    4.0060   20.2712 H       1  LIG1        0.0265
     52 H           0.3010    5.1307   20.2500 H       1  LIG1        0.0265
     53 C           0.7841    3.5946   21.5160 C.3     1  LIG1       -0.0531
     54 H           1.7419    3.7477   21.4930 H       1  LIG1        0.0265
     55 H           0.6392    2.6361   21.5263 H       1  LIG1        0.0265
     56 C           0.2227    4.1896   22.8025 C.3     1  LIG1       -0.0531
     57 H           0.3658    5.1496   22.7964 H       1  LIG1        0.0265
     58 H          -0.7340    4.0329   22.8327 H       1  LIG1        0.0265
     59 C           0.8611    3.6019   24.0530 C.3     1  LIG1       -0.0530
     60 H           0.7157    2.6426   24.0545 H       1  LIG1        0.0265
     61 H           1.8184    3.7535   24.0122 H       1  LIG1        0.0265
     62 C           0.3319    4.1736   25.3582 C.3     1  LIG1       -0.0510
     63 H           0.4803    5.1322   25.3670 H       1  LIG1        0.0266
     64 H          -0.6248    4.0205   25.4063 H       1  LIG1        0.0266
     65 C           0.9939    3.5576   26.5749 C.3     1  LIG1       -0.0297
     66 H           0.8455    2.5991   26.5585 H       1  LIG1        0.0287
     67 H           1.9505    3.7078   26.5192 H       1  LIG1        0.0287
     68 C           0.4925    4.1054   27.8892 C.3     1  LIG1        0.0442
     69 H           0.6598    5.0596   27.9376 H       1  LIG1        0.0557
     70 H          -0.4629    3.9574   27.9678 H       1  LIG1        0.0557
@<TRIPOS>BOND
     1     7     5    1
     2     1     5    1
     3     1     2    1
     4     6     5    1
     5     5     8    1
     6     9     8    1
     7     8    10    1
     8     8    11    1
     9    12    11    1
    10    13    11    1
    11    11    14    1
    12    14    15    1
    13    14    16    1
    14    14    17    1
    15    19    17    1
    16    18    17    1
    17    17    20    1
    18    20    22    1
    19    20    21    1
    20    20    23    1
    21    25    23    1
    22    23    24    1
    23    23    26    1
    24    27    26    1
    25    26    28    1
    26    26    29    1
    27    30    29    1
    28    29    31    1
    29    29    32    1
    30    32    33    1
    31    32    34    1
    32    32    35    1
    33    36    35    1
    34    35    37    1
    35    35    38    1
    36    39    38    1
    37    38    40    1
    38    38    41    1
    39    42    41    1
    40    41    43    1
    41    41    44    1
    42    46    44    1
    43    44    45    1
    44    44    47    1
    45    49    47    1
    46    47    48    1
    47    47    50    1
    48    52    50    1
    49    50    51    1
    50    50    53    1
    51    54    53    1
    52    53    55    1
    53    53    56    1
    54    57    56    1
    55    56    58    1
    56    56    59    1
    57    61    59    1
    58    59    60    1
    59    59    62    1
    60    62    63    1
    61    62    64    1
    62    62    65    1
    63    67    65    1
    64    66    65    1
    65    65    68    1
    66    68    69    1
    67    68    70    1
    68    68     3    1
    69     3     4    1
