@<TRIPOS>MOLECULE
2,6-Dimethyl-4-(diphenylmethylene)-cyclohexa-2,5-dienone
 40 42 0 0 0
SMALL
GASTEIGER

@<TRIPOS>ATOM
      1 C           1.0750    1.3713    9.7892 C.2     1  LIG1       -0.0066
      2 O          -0.8778    0.7572    8.6184 O.2     1  LIG1       -0.2874
      3 C          -1.1957    1.4051   10.8674 C.2     1  LIG1       -0.0066
      4 C          -0.6150    1.8001   12.0129 C.2     1  LIG1       -0.0652
      5 H          -1.1627    1.9167   12.7806 H       1  LIG1        0.0585
      6 C           4.7899    3.2454   14.7081 C.ar    1  LIG1       -0.0615
      7 H           5.3341    3.0022   15.4484 H       1  LIG1        0.0618
      8 C           1.5979    1.8415   10.9394 C.2     1  LIG1       -0.0652
      9 H           2.5269    2.0401   10.9669 H       1  LIG1        0.0585
     10 C           3.1982    3.9487   12.5441 C.ar    1  LIG1       -0.0576
     11 H           2.6582    4.2024   11.8051 H       1  LIG1        0.0621
     12 C           2.7157    3.0189   13.4691 C.ar    1  LIG1       -0.0345
     13 C           1.9229    1.0006    8.6064 C.3     1  LIG1       -0.0363
     14 H           2.8266    1.3600    8.7270 H       1  LIG1        0.0279
     15 H           1.5285    1.3751    7.7920 H       1  LIG1        0.0279
     16 H           1.9669    0.0247    8.5298 H       1  LIG1        0.0279
     17 C           5.2551    4.1563   13.7736 C.ar    1  LIG1       -0.0617
     18 H           6.1181    4.5403   13.8724 H       1  LIG1        0.0618
     19 C           0.5670    3.1876   15.5929 C.ar    1  LIG1       -0.0576
     20 H           0.9806    4.0286   15.4378 H       1  LIG1        0.0621
     21 C           3.5301    2.6905   14.5619 C.ar    1  LIG1       -0.0576
     22 H           3.2118    2.0765   15.2142 H       1  LIG1        0.0621
     23 C          -0.0884    2.9582   16.7895 C.ar    1  LIG1       -0.0615
     24 H          -0.1225    3.6404   17.4505 H       1  LIG1        0.0618
     25 C          -0.6951    1.7339   17.0256 C.ar    1  LIG1       -0.0617
     26 H          -1.1522    1.5810   17.8450 H       1  LIG1        0.0618
     27 C           0.6277    2.1952   14.6104 C.ar    1  LIG1       -0.0345
     28 C           0.8086    2.0572   12.1337 C.3     1  LIG1        0.0365
     29 C           4.4625    4.5063   12.6973 C.ar    1  LIG1       -0.0615
     30 H           4.7830    5.1313   12.0586 H       1  LIG1        0.0618
     31 C          -0.3747    1.1569    9.6716 C.2     1  LIG1        0.1842
     32 C           1.3646    2.4216   13.3404 C.3     1  LIG1        0.0489
     33 C          -2.6829    1.1986   10.7543 C.3     1  LIG1       -0.0363
     34 H          -2.8741    0.2413   10.6746 H       1  LIG1        0.0279
     35 H          -3.0184    1.6668    9.9614 H       1  LIG1        0.0279
     36 H          -3.1239    1.5542   11.5533 H       1  LIG1        0.0279
     37 C          -0.6359    0.7354   16.0703 C.ar    1  LIG1       -0.0615
     38 H          -1.0483   -0.1040   16.2355 H       1  LIG1        0.0618
     39 C           0.0249    0.9594   14.8719 C.ar    1  LIG1       -0.0576
     40 H           0.0685    0.2671   14.2228 H       1  LIG1        0.0621
@<TRIPOS>BOND
     1    15    13    1
     2    16    13    1
     3    13    14    1
     4    13     1    1
     5     2    31    2
     6    31     1    1
     7    31     3    1
     8     1     8    2
     9    35    33    1
    10    34    33    1
    11    33     3    1
    12    33    36    1
    13     3     4    2
    14     8     9    1
    15     8    28    1
    16    11    10    1
    17     4    28    1
    18     4     5    1
    19    30    29    1
    20    28    32    1
    21    10    29   ar
    22    10    12   ar
    23    29    17   ar
    24    32    12    1
    25    32    27    1
    26    12    21   ar
    27    17    18    1
    28    17     6   ar
    29    40    39    1
    30    21     6   ar
    31    21    22    1
    32    27    39   ar
    33    27    19   ar
    34     6     7    1
    35    39    37   ar
    36    20    19    1
    37    19    23   ar
    38    37    38    1
    39    37    25   ar
    40    23    25   ar
    41    23    24    1
    42    25    26    1
