@<TRIPOS>MOLECULE
?
 47 48 0 0 0
SMALL
GASTEIGER

@<TRIPOS>ATOM
      1 O          -7.1169   -0.9605  -21.0893 O.3     1  LIG1       -0.4951
      2 O          -4.6386   -7.8891  -18.1247 O.3     1  LIG1       -0.3879
      3 H          -4.9054   -7.7098  -17.3831 H       1  LIG1        0.2102
      4 N          -6.1672   -6.8573  -16.0938 N.3     1  LIG1       -0.3077
      5 C          -6.2255   -4.5525  -19.1476 C.ar    1  LIG1       -0.0401
      6 C          -5.6560   -3.3368  -18.7693 C.ar    1  LIG1       -0.0547
      7 H          -5.0864   -3.3093  -18.0173 H       1  LIG1        0.0622
      8 C          -5.9622   -2.1541  -19.4345 C.ar    1  LIG1       -0.0197
      9 H          -5.6379   -1.3131  -19.1449 H       1  LIG1        0.0654
     10 C          -6.8585   -2.1763  -20.4996 C.ar    1  LIG1        0.1201
     11 C          -7.4297   -3.3651  -20.8928 C.ar    1  LIG1       -0.0197
     12 H          -8.0083   -3.4335  -21.6033 H       1  LIG1        0.0654
     13 C          -7.1070   -4.5380  -20.2086 C.ar    1  LIG1       -0.0547
     14 H          -7.4980   -5.3587  -20.4623 H       1  LIG1        0.0622
     15 C          -5.9712   -5.8694  -18.4022 C.3     1  LIG1        0.0257
     16 H          -6.7243   -6.5298  -18.6603 H       1  LIG1        0.0389
     17 C          -4.6511   -6.6057  -18.7885 C.3     1  LIG1        0.0740
     18 C          -4.6395   -6.9157  -20.2790 C.3     1  LIG1       -0.0234
     19 H          -4.6996   -6.0684  -20.7593 H       1  LIG1        0.0293
     20 H          -5.4157   -7.4170  -20.4779 H       1  LIG1        0.0293
     21 C          -3.3580   -7.6131  -20.7354 C.3     1  LIG1       -0.0504
     22 H          -3.2922   -8.5082  -20.3015 H       1  LIG1        0.0266
     23 H          -3.2922   -7.7275  -21.6279 H       1  LIG1        0.0266
     24 C          -2.1144   -6.8430  -20.3212 C.3     1  LIG1       -0.0529
     25 H          -1.2840   -7.3549  -20.5829 H       1  LIG1        0.0265
     26 H          -2.1399   -6.0063  -20.8285 H       1  LIG1        0.0265
     27 C          -2.1103   -6.5857  -18.8403 C.3     1  LIG1       -0.0504
     28 H          -1.2593   -6.0418  -18.6715 H       1  LIG1        0.0266
     29 H          -2.0823   -7.4525  -18.3544 H       1  LIG1        0.0266
     30 C          -3.3811   -5.8440  -18.4031 C.3     1  LIG1       -0.0234
     31 H          -3.4074   -5.6958  -17.4144 H       1  LIG1        0.0293
     32 H          -3.4074   -5.0038  -18.8926 H       1  LIG1        0.0293
     33 C          -6.1235   -5.6240  -16.8946 C.3     1  LIG1        0.0078
     34 H          -5.3498   -5.0570  -16.5592 H       1  LIG1        0.0433
     35 H          -6.9301   -5.0837  -16.7534 H       1  LIG1        0.0433
     36 C          -7.4091   -7.6006  -16.2941 C.3     1  LIG1       -0.0130
     37 H          -7.4157   -8.3929  -15.7085 H       1  LIG1        0.0391
     38 H          -7.4568   -7.9316  -17.2380 H       1  LIG1        0.0391
     39 H          -8.1317   -7.0266  -16.1372 H       1  LIG1        0.0391
     40 C          -6.0428   -6.4987  -14.6766 C.3     1  LIG1       -0.0130
     41 H          -6.7572   -5.9088  -14.4000 H       1  LIG1        0.0391
     42 H          -5.1605   -5.9975  -14.5272 H       1  LIG1        0.0391
     43 H          -6.0823   -7.3726  -14.1052 H       1  LIG1        0.0391
     44 C          -8.0544   -0.9387  -22.1490 C.3     1  LIG1        0.0788
     45 H          -7.8025   -1.4639  -22.8716 H       1  LIG1        0.0660
     46 H          -8.0823   -0.0532  -22.4116 H       1  LIG1        0.0660
     47 H          -8.9877   -1.3308  -21.8177 H       1  LIG1        0.0660
@<TRIPOS>BOND
     1    45    44    1
     2    46    44    1
     3    44    47    1
     4    44     1    1
     5    23    21    1
     6    12    11    1
     7     1    10    1
     8    11    10   ar
     9    11    13   ar
    10    26    24    1
    11    19    18    1
    12    21    24    1
    13    21    22    1
    14    21    18    1
    15    25    24    1
    16    10     8   ar
    17    20    18    1
    18    14    13    1
    19    24    27    1
    20    18    17    1
    21    13     5   ar
    22     8     9    1
    23     8     6   ar
    24     5     6   ar
    25     5    15    1
    26    32    30    1
    27    27    28    1
    28    27    30    1
    29    27    29    1
    30    17    30    1
    31    17    15    1
    32    17     2    1
    33     6     7    1
    34    16    15    1
    35    30    31    1
    36    15    33    1
    37     2     3    1
    38    38    36    1
    39    33    35    1
    40    33    34    1
    41    33     4    1
    42    36    39    1
    43    36     4    1
    44    36    37    1
    45     4    40    1
    46    40    42    1
    47    40    41    1
    48    40    43    1
