@<TRIPOS>MOLECULE
4503335.cif
 81 84 0 0 0
SMALL
GASTEIGER

@<TRIPOS>ATOM
      1 BR          2.2976   -1.5369   -9.2902 Br      1  LIG1       -0.0502
      2 CL          2.1975   -1.2538   -3.7994 Cl      1  LIG1       -0.0835
      3 O           0.8092   -0.9383    1.5026 O.3     2  LIG2       -0.3918
      4 O          -2.2124    0.8817   -1.8395 O.3     2  LIG2       -0.3915
      5 O          -2.5094   -3.4540   -3.2098 O.3     2  LIG2       -0.3912
      6 O          -5.2090   -1.5854  -10.1137 O.2     2  LIG2       -0.2510
      7 O          -5.7699   -3.6320  -10.7605 O.3     2  LIG2       -0.4806
      8 C          -2.5883   -2.5480    1.5162 C.3     2  LIG2       -0.0448
      9 C          -1.0689   -2.4267    1.3507 C.3     2  LIG2       -0.0263
     10 C          -0.6157   -1.0354    1.7478 C.3     2  LIG2        0.0555
     11 C          -1.3316    0.0162    0.9792 C.3     2  LIG2       -0.0234
     12 C          -2.8686   -0.0809    1.0709 C.3     2  LIG2       -0.0307
     13 C          -3.5234    1.0111    0.2377 C.3     2  LIG2       -0.0232
     14 C          -3.5413    0.7846   -1.2695 C.3     2  LIG2        0.0589
     15 C          -4.0901   -0.6148   -1.5914 C.3     2  LIG2       -0.0081
     16 C          -3.3576   -1.7310   -0.8152 C.3     2  LIG2       -0.0276
     17 C          -3.4142   -1.5126    0.7250 C.3     2  LIG2       -0.0257
     18 C          -3.8819   -3.0981   -1.2725 C.3     2  LIG2       -0.0226
     19 C          -3.8845   -3.3650   -2.7751 C.3     2  LIG2        0.0614
     20 C          -4.6432   -2.2326   -3.5121 C.3     2  LIG2        0.0001
     21 C          -4.0303   -0.8979   -3.0834 C.3     2  LIG2       -0.0276
     22 C          -4.6427    0.1294   -3.9980 C.3     2  LIG2       -0.0490
     23 C          -4.8189   -0.6229   -5.3276 C.3     2  LIG2       -0.0491
     24 C          -4.4725   -2.1193   -5.0493 C.3     2  LIG2       -0.0304
     25 C          -6.1349   -2.3296   -3.1632 C.3     2  LIG2       -0.0567
     26 C          -4.8699   -1.6421    1.2364 C.3     2  LIG2       -0.0590
     27 C          -5.2779   -3.0496   -5.9924 C.3     2  LIG2       -0.0400
     28 C          -5.0181   -4.5298   -5.7352 C.3     2  LIG2       -0.0621
     29 C          -4.9642   -2.6775   -7.4514 C.3     2  LIG2       -0.0401
     30 C          -5.9402   -3.1790   -8.4622 C.3     2  LIG2        0.0450
     31 C          -5.6123   -2.6936   -9.8625 C.2     2  LIG2        0.3047
     32 C           1.5065   -1.9575   -7.6605 C.ar    1  LIG1        0.0193
     33 C           2.0870   -1.4884   -6.5053 C.ar    1  LIG1       -0.0294
     34 C           1.4805   -1.7958   -5.2765 C.ar    1  LIG1        0.0420
     35 C           0.3072   -2.5238   -5.2479 C.ar    1  LIG1       -0.0433
     36 C          -0.2348   -3.0253   -6.4106 C.ar    1  LIG1       -0.0593
     37 C           0.3818   -2.7422   -7.6229 C.ar    1  LIG1       -0.0477
     38 H          -2.7914   -2.4785    2.4427 H       2  LIG2        0.0271
     39 H          -2.8522   -3.4508    1.2349 H       2  LIG2        0.0271
     40 H          -0.8452   -2.6289    0.4452 H       2  LIG2        0.0290
     41 H          -0.6465   -3.1118    1.9057 H       2  LIG2        0.0290
     42 H          -0.7898   -0.9529    2.6773 H       2  LIG2        0.0593
     43 H          -1.0809   -0.1108    0.0752 H       2  LIG2        0.0293
     44 H          -1.0606    0.8129    1.3221 H       2  LIG2        0.0293
     45 H          -3.0961    0.0493    1.9809 H       2  LIG2        0.0308
     46 H          -3.0609    1.7780    0.3971 H       2  LIG2        0.0293
     47 H          -4.4229    1.0483    0.5249 H       2  LIG2        0.0293
     48 H          -4.1011    1.3929   -1.6741 H       2  LIG2        0.0596
     49 H          -5.0122   -0.6730   -1.3372 H       2  LIG2        0.0331
     50 H          -2.4412   -1.7375   -1.0739 H       2  LIG2        0.0310
     51 H          -4.7788   -3.2388   -0.9641 H       2  LIG2        0.0293
     52 H          -3.3442   -3.8229   -0.8664 H       2  LIG2        0.0293
     53 H          -4.3154   -4.2354   -2.9466 H       2  LIG2        0.0599
     54 H          -3.1091   -0.9877   -3.3061 H       2  LIG2        0.0310
     55 H          -4.0514    0.8227   -4.1183 H       2  LIG2        0.0268
     56 H          -5.4703    0.3891   -3.6670 H       2  LIG2        0.0268
     57 H          -4.2455   -0.3244   -5.9939 H       2  LIG2        0.0268
     58 H          -5.7260   -0.6051   -5.6209 H       2  LIG2        0.0268
     59 H          -3.5530   -2.2827   -5.2524 H       2  LIG2        0.0310
     60 H          -6.6107   -1.6963   -3.6219 H       2  LIG2        0.0236
     61 H          -6.2444   -2.2908   -2.2366 H       2  LIG2        0.0236
     62 H          -6.4615   -3.2307   -3.4505 H       2  LIG2        0.0236
     63 H          -5.4324   -1.0645    0.7716 H       2  LIG2        0.0235
     64 H          -4.9085   -1.4957    2.1659 H       2  LIG2        0.0235
     65 H          -5.1878   -2.5658    1.0785 H       2  LIG2        0.0235
     66 H          -6.1999   -2.9379   -5.8435 H       2  LIG2        0.0301
     67 H          -5.5486   -5.0912   -6.3218 H       2  LIG2        0.0233
     68 H          -5.2296   -4.7733   -4.8372 H       2  LIG2        0.0233
     69 H          -4.0958   -4.7571   -5.8961 H       2  LIG2        0.0233
     70 H          -4.1113   -3.0487   -7.6740 H       2  LIG2        0.0273
     71 H          -4.9513   -1.7553   -7.5010 H       2  LIG2        0.0273
     72 H          -6.8192   -2.8878   -8.2366 H       2  LIG2        0.0378
     73 H          -5.9545   -4.1586   -8.4441 H       2  LIG2        0.0378
     74 H           1.1345   -0.1407    1.8155 H       2  LIG2        0.2098
     75 H          -1.7841    1.4051   -1.6711 H       2  LIG2        0.2098
     76 H          -2.4188   -3.8237   -3.7829 H       2  LIG2        0.2098
     77 H          -5.5414   -3.5284  -11.4855 H       2  LIG2        0.2951
     78 H           2.8909   -0.9933   -6.5189 H       1  LIG1        0.0643
     79 H          -0.1042   -2.7519   -4.4266 H       1  LIG1        0.0632
     80 H          -1.0283   -3.6117   -6.3925 H       1  LIG1        0.0618
     81 H           0.0126   -3.1288   -8.4501 H       1  LIG1        0.0629
@<TRIPOS>BOND
     1    77     7    1
     2     7    31    1
     3     6    31    2
     4    31    30    1
     5     1    32    1
     6    30    73    1
     7    30    72    1
     8    30    29    1
     9    81    37    1
    10    70    29    1
    11    32    37   ar
    12    32    33   ar
    13    37    36   ar
    14    71    29    1
    15    29    27    1
    16    78    33    1
    17    33    34   ar
    18    36    80    1
    19    36    35   ar
    20    67    28    1
    21    57    23    1
    22    27    66    1
    23    27    28    1
    24    27    24    1
    25    69    28    1
    26    28    68    1
    27    58    23    1
    28    23    24    1
    29    23    22    1
    30    34    35   ar
    31    34     2    1
    32    59    24    1
    33    35    79    1
    34    24    20    1
    35    55    22    1
    36    22    56    1
    37    22    21    1
    38    76     5    1
    39    60    25    1
    40    20    25    1
    41    20    21    1
    42    20    19    1
    43    62    25    1
    44    54    21    1
    45     5    19    1
    46    25    61    1
    47    21    15    1
    48    53    19    1
    49    19    18    1
    50     4    75    1
    51     4    14    1
    52    48    14    1
    53    15    49    1
    54    15    14    1
    55    15    16    1
    56    18    51    1
    57    18    52    1
    58    18    16    1
    59    14    13    1
    60    50    16    1
    61    16    17    1
    62    43    11    1
    63    13    46    1
    64    13    47    1
    65    13    12    1
    66    40     9    1
    67    17    12    1
    68    17    26    1
    69    17     8    1
    70    63    26    1
    71    11    12    1
    72    11    44    1
    73    11    10    1
    74    12    45    1
    75    65    26    1
    76    39     8    1
    77    26    64    1
    78     9     8    1
    79     9    10    1
    80     9    41    1
    81     3    10    1
    82     3    74    1
    83     8    38    1
    84    10    42    1
