@<TRIPOS>MOLECULE
?
 94 96 0 0 0
SMALL
GASTEIGER

@<TRIPOS>ATOM
      1 O           0.4061    7.9072    7.8814 O.3     1  LIG1       -0.5065
      2 H           0.7657    8.2679    8.6501 H       1  LIG1        0.2921
      3 O           2.0799    6.8619    4.8182 O.3     1  LIG1       -0.5065
      4 H           2.8606    7.1482    4.5435 H       1  LIG1        0.2921
      5 O          -3.7960    5.4980    2.7023 O.3     1  LIG1       -0.5032
      6 H          -4.3939    4.9130    2.3703 H       1  LIG1        0.2923
      7 O          -3.0732    2.8707    2.1487 O.3     1  LIG1       -0.5009
      8 H          -2.6134    2.1913    1.9687 H       1  LIG1        0.2924
      9 O          -0.9470    1.7775    3.4230 O.3     1  LIG1       -0.5032
     10 H          -0.1195    1.5429    3.7590 H       1  LIG1        0.2923
     11 C          -0.2669    5.9590    6.0383 C.3     1  LIG1        0.0413
     12 H          -0.1159    6.8469    5.6273 H       1  LIG1        0.0448
     13 C          -1.1056    6.1920    7.2894 C.ar    1  LIG1        0.0059
     14 C          -0.6954    7.1743    8.2024 C.ar    1  LIG1        0.1209
     15 C          -1.4011    7.3788    9.3790 C.ar    1  LIG1       -0.0199
     16 H          -1.1132    8.0314    9.9904 H       1  LIG1        0.0654
     17 C          -2.5242    6.6263    9.6519 C.ar    1  LIG1       -0.0583
     18 H          -2.9963    6.7664   10.4515 H       1  LIG1        0.0619
     19 C          -2.9588    5.6706    8.7612 C.ar    1  LIG1       -0.0612
     20 H          -3.7330    5.1690    8.9438 H       1  LIG1        0.0618
     21 C          -2.2415    5.4548    7.5902 C.ar    1  LIG1       -0.0542
     22 H          -2.5329    4.7942    6.9881 H       1  LIG1        0.0622
     23 C           1.1067    5.3992    6.3967 C.ar    1  LIG1        0.0059
     24 C           2.2430    5.8553    5.7277 C.ar    1  LIG1        0.1209
     25 C           3.4868    5.2880    5.9889 C.ar    1  LIG1       -0.0199
     26 H           4.2495    5.5967    5.5325 H       1  LIG1        0.0654
     27 C           3.6012    4.2716    6.9182 C.ar    1  LIG1       -0.0583
     28 H           4.4404    3.8786    7.0773 H       1  LIG1        0.0619
     29 C           2.4962    3.8287    7.6125 C.ar    1  LIG1       -0.0612
     30 H           2.5787    3.1481    8.2560 H       1  LIG1        0.0618
     31 C           1.2609    4.4020    7.3482 C.ar    1  LIG1       -0.0542
     32 H           0.5076    4.1069    7.8265 H       1  LIG1        0.0622
     33 C          -0.9819    5.1046    4.9934 C.ar    1  LIG1       -0.0283
     34 C          -2.0700    5.6433    4.3120 C.ar    1  LIG1       -0.0122
     35 H          -2.3336    6.5278    4.4896 H       1  LIG1        0.0658
     36 C          -2.7726    4.8981    3.3740 C.ar    1  LIG1        0.1623
     37 C          -2.3827    3.5931    3.1012 C.ar    1  LIG1        0.2006
     38 C          -1.2967    3.0473    3.7725 C.ar    1  LIG1        0.1623
     39 C          -0.6044    3.8024    4.7162 C.ar    1  LIG1       -0.0122
     40 H           0.1270    3.4234    5.1700 H       1  LIG1        0.0658
     41 N           1.4254    1.0067    4.2668 N.ar    2  LIG2       -0.2632
     42 N           9.6079   -0.5020    8.4073 N.ar    2  LIG2       -0.2632
     43 C           6.2952    0.4745    5.8747 C.2     2  LIG2       -0.0539
     44 H           6.2908    1.3377    5.5027 H       2  LIG2        0.0624
     45 C           5.2598   -0.2792    5.6606 C.2     2  LIG2       -0.0539
     46 H           5.3369   -1.1947    5.8634 H       2  LIG2        0.0624
     47 C           2.4714    1.8301    4.1908 C.ar    2  LIG2        0.0281
     48 H           2.3365    2.6945    3.8463 H       2  LIG2        0.0830
     49 C           3.7477    1.4717    4.5948 C.ar    2  LIG2       -0.0364
     50 H           4.4590    2.0812    4.5156 H       2  LIG2        0.0639
     51 C           3.9677    0.2016    5.1190 C.ar    2  LIG2       -0.0222
     52 C           2.8749   -0.6383    5.1917 C.ar    2  LIG2       -0.0364
     53 H           2.9728   -1.5062    5.5381 H       2  LIG2        0.0639
     54 C           1.6462   -0.2075    4.7573 C.ar    2  LIG2        0.0281
     55 H           0.9219   -0.8044    4.8093 H       2  LIG2        0.0830
     56 C           9.2666    0.7380    8.0792 C.ar    2  LIG2        0.0281
     57 H           9.7590    1.4411    8.4623 H       2  LIG2        0.0830
     58 C           8.2511    1.0668    7.2247 C.ar    2  LIG2       -0.0364
     59 H           8.0772    1.9678    7.0197 H       2  LIG2        0.0639
     60 C           7.4856    0.0701    6.6669 C.ar    2  LIG2       -0.0222
     61 C           7.8357   -1.2324    6.9736 C.ar    2  LIG2       -0.0364
     62 H           7.3561   -1.9513    6.6033 H       2  LIG2        0.0639
     63 C           8.9027   -1.4719    7.8345 C.ar    2  LIG2        0.0281
     64 H           9.1356   -2.3636    8.0199 H       2  LIG2        0.0830
     65 N          -5.9192    4.2828    1.6566 N.ar    3  LIG3       -0.2632
     66 N         -13.9244    1.1942   -2.1329 N.ar    3  LIG3       -0.2632
     67 C         -10.0451    2.0954   -0.5644 C.2     3  LIG3       -0.0539
     68 H          -9.3840    1.4299   -0.6209 H       3  LIG3        0.0624
     69 C          -9.7232    3.2352    0.0134 C.2     3  LIG3       -0.0539
     70 H         -10.3948    3.8906    0.0725 H       3  LIG3        0.0624
     71 C          -7.0528    4.8602    2.0661 C.ar    3  LIG3        0.0281
     72 H          -6.9995    5.5204    2.7328 H       3  LIG3        0.0830
     73 C          -8.2969    4.5400    1.5627 C.ar    3  LIG3       -0.0364
     74 H          -9.0645    4.9743    1.8869 H       3  LIG3        0.0639
     75 C          -8.4057    3.5717    0.5728 C.ar    3  LIG3       -0.0222
     76 C          -7.2262    2.9669    0.1456 C.ar    3  LIG3       -0.0364
     77 H          -7.2460    2.3049   -0.5224 H       3  LIG3        0.0639
     78 C          -6.0262    3.3502    0.7129 C.ar    3  LIG3        0.0281
     79 H          -5.2408    2.9286    0.4164 H       3  LIG3        0.0830
     80 C         -13.1440    0.2654   -1.5990 C.ar    3  LIG3        0.0281
     81 H         -13.4761   -0.6118   -1.5467 H       3  LIG3        0.0830
     82 C         -11.8728    0.5067   -1.1158 C.ar    3  LIG3       -0.0364
     83 H         -11.3510   -0.2002   -0.7808 H       3  LIG3        0.0639
     84 C         -11.3738    1.7940   -1.1271 C.ar    3  LIG3       -0.0222
     85 C         -12.1742    2.7673   -1.7023 C.ar    3  LIG3       -0.0364
     86 H         -11.8751    3.6567   -1.7531 H       3  LIG3        0.0639
     87 C         -13.4152    2.4195   -2.1996 C.ar    3  LIG3        0.0281
     88 H         -13.9309    3.0910   -2.6101 H       3  LIG3        0.0830
     89 O           4.3305    7.8555    3.7606 O.3     4  HOH4       -0.4105
     90 H           4.0101    8.5502    3.1827 H       0  HOH0        0.2052
     91 H           3.3850   10.7280    2.7439 H       0  HOH0        0.2052
     92 O           3.2068    9.9748    2.3593 O.3     5  HOH5       -0.4105
     93 H           4.6886    7.2473    3.2347 H       0  HOH0        0.2052
     94 H           2.2895    9.8738    2.4205 H       0  HOH0        0.2052
@<TRIPOS>BOND
     1    88    87    1
     2    87    66   ar
     3    87    85   ar
     4    66    80   ar
     5    86    85    1
     6    85    84   ar
     7    80    81    1
     8    80    82   ar
     9    84    82   ar
    10    84    67    1
    11    82    83    1
    12    68    67    1
    13    67    69    2
    14    77    76    1
    15    69    70    1
    16    69    75    1
    17    76    75   ar
    18    76    78   ar
    19    79    78    1
    20    75    73   ar
    21    78    65   ar
    22    73    74    1
    23    73    71   ar
    24    65    71   ar
    25     8     7    1
    26    71    72    1
    27     7    37    1
    28    92    94    1
    29    92    91    1
    30     6     5    1
    31     5    36    1
    32    37    36   ar
    33    37    38   ar
    34    90    89    1
    35    93    89    1
    36    36    34   ar
    37     9    10    1
    38     9    38    1
    39    38    39   ar
    40    48    47    1
    41    47    41   ar
    42    47    49   ar
    43    41    54   ar
    44    34    35    1
    45    34    33   ar
    46    50    49    1
    47     4     3    1
    48    49    51   ar
    49    39    33   ar
    50    39    40    1
    51    54    55    1
    52    54    52   ar
    53     3    24    1
    54    33    11    1
    55    51    52   ar
    56    51    45    1
    57    52    53    1
    58    44    43    1
    59    26    25    1
    60    12    11    1
    61    45    46    1
    62    45    43    2
    63    24    25   ar
    64    24    23   ar
    65    43    60    1
    66    25    27   ar
    67    11    23    1
    68    11    13    1
    69    23    31   ar
    70    62    61    1
    71    60    61   ar
    72    60    58   ar
    73    27    28    1
    74    27    29   ar
    75    61    63   ar
    76    22    21    1
    77    59    58    1
    78    58    56   ar
    79    13    21   ar
    80    13    14   ar
    81    31    29   ar
    82    31    32    1
    83    21    19   ar
    84    29    30    1
    85    63    64    1
    86    63    42   ar
    87     1    14    1
    88     1     2    1
    89    56    42   ar
    90    56    57    1
    91    14    15   ar
    92    19    20    1
    93    19    17   ar
    94    15    17   ar
    95    15    16    1
    96    17    18    1
