@<TRIPOS>MOLECULE
4-Hydroxy-2-methyl-N-(2-pyridyl)-2H-1,2-benzothiazine  -3-carboxamide-1,1-dioxide 1-hydroxy-2-naphthoic acid
 58 61 0 0 0
SMALL
GASTEIGER

@<TRIPOS>ATOM
      1 C           1.7533    0.7070    4.5516 C.2     1  LIG1        0.1547
      2 C           1.8900    1.9014    3.9136 C.2     1  LIG1        0.1534
      3 C           1.7485    2.0386    2.4741 C.ar    1  LIG1        0.0451
      4 C           1.5508    3.2815    1.8757 C.ar    1  LIG1       -0.0491
      5 H           1.5085    4.0651    2.4101 H       1  LIG1        0.0625
      6 C           1.4143    3.3749    0.4921 C.ar    1  LIG1       -0.0610
      7 H           1.2781    4.2289    0.0968 H       1  LIG1        0.0618
      8 C           1.4718    2.2697   -0.3122 C.ar    1  LIG1       -0.0599
      9 H           1.3784    2.3623   -1.2527 H       1  LIG1        0.0618
     10 C           1.6668    1.0177    0.2413 C.ar    1  LIG1       -0.0344
     11 H           1.6902    0.2434   -0.3081 H       1  LIG1        0.0637
     12 C           1.8263    0.9145    1.6194 C.ar    1  LIG1        0.1194
     13 C          -0.0569   -0.7280    3.7119 C.3     1  LIG1        0.0239
     14 H          -0.4524   -0.7368    4.6088 H       1  LIG1        0.0446
     15 H          -0.2125   -1.5931    3.2784 H       1  LIG1        0.0446
     16 H          -0.4704   -0.0169    3.1789 H       1  LIG1        0.0446
     17 C           1.9976    0.5673    5.9911 C.2     1  LIG1        0.2685
     18 C           2.0593   -1.0936    7.8613 C.ar    1  LIG1        0.1251
     19 C           2.3900   -0.2223    8.8960 C.ar    1  LIG1       -0.0215
     20 H           2.5049    0.7080    8.7365 H       1  LIG1        0.0652
     21 C           2.5452   -0.7534   10.1596 C.ar    1  LIG1       -0.0571
     22 H           2.7630   -0.1864   10.8889 H       1  LIG1        0.0619
     23 C           2.3855   -2.1004   10.3614 C.ar    1  LIG1       -0.0435
     24 H           2.5168   -2.4857   11.2202 H       1  LIG1        0.0633
     25 C           2.0308   -2.8725    9.2872 C.ar    1  LIG1        0.0297
     26 H           1.8949   -3.8008    9.4290 H       1  LIG1        0.0830
     27 N           1.3917   -0.4852    3.8168 N.pl3   1  LIG1       -0.1975
     28 N           1.8750   -0.6908    6.5145 N.am    1  LIG1       -0.2652
     29 H           1.8129   -1.4898    5.9788 H       1  LIG1        0.1566
     30 N           1.8652   -2.3944    8.0508 N.ar    1  LIG1       -0.2401
     31 O           3.6374   -0.5945    2.7086 O.2     1  LIG1       -0.1498
     32 O           1.6910   -1.7057    1.6385 O.2     1  LIG1       -0.1498
     33 O           2.2094    3.0255    4.5516 O.2     1  LIG1       -0.5040
     34 H           2.1842    2.8920    5.3818 H       1  LIG1        0.2923
     35 O           2.2817    1.5769    6.6699 O.2     1  LIG1       -0.2683
     36 S           2.2310   -0.6133    2.3896 S.O2    1  LIG1        0.0754
     37 C           6.3299    6.6035    4.8297 C.ar    2  LIG2        0.1007
     38 C           6.1251    6.6002    3.4638 C.ar    2  LIG2        0.1385
     39 C           5.7146    5.3475    2.8108 C.ar    2  LIG2        0.0244
     40 C           5.5024    5.3110    1.4286 C.ar    2  LIG2       -0.0505
     41 H           5.6087    6.0996    0.9092 H       2  LIG2        0.0625
     42 C           5.1382    4.1265    0.8206 C.ar    2  LIG2       -0.0611
     43 H           5.0079    4.0936   -0.1200 H       2  LIG2        0.0618
     44 C           4.9648    2.9895    1.5894 C.ar    2  LIG2       -0.0612
     45 H           4.6998    2.1878    1.1546 H       2  LIG2        0.0618
     46 C           5.1542    2.9633    2.9390 C.ar    2  LIG2       -0.0539
     47 H           5.0274    2.1600    3.4311 H       2  LIG2        0.0624
     48 C           5.5575    4.1981    3.6124 C.ar    2  LIG2       -0.0144
     49 C           5.7731    4.2457    5.0001 C.ar    2  LIG2       -0.0530
     50 H           5.6465    3.4632    5.5222 H       2  LIG2        0.0624
     51 C           6.1578    5.3927    5.5958 C.ar    2  LIG2       -0.0436
     52 H           6.3177    5.4028    6.5323 H       2  LIG2        0.0627
     53 C           6.7195    7.8617    5.5303 C.2     2  LIG2        0.3404
     54 O           6.2940    7.6474    2.6868 O.3     2  LIG2       -0.5053
     55 H           6.5091    8.3112    3.1543 H       2  LIG2        0.2922
     56 O           6.8868    7.7871    6.8103 O.3     2  LIG2       -0.4770
     57 O           6.9014    8.9121    4.8897 O.2     2  LIG2       -0.2450
     58 H           7.2606    8.9016    6.9794 H       2  LIG2        0.2954
@<TRIPOS>BOND
     1     9     8    1
     2     8    10   ar
     3     8     6   ar
     4    11    10    1
     5    43    42    1
     6     7     6    1
     7    10    12   ar
     8     6     4   ar
     9    42    40   ar
    10    42    44   ar
    11    41    40    1
    12    45    44    1
    13    40    39   ar
    14    44    46   ar
    15    12    36    1
    16    12     3   ar
    17    32    36    2
    18     4     5    1
    19     4     3   ar
    20    36    31    2
    21    36    27    1
    22     3     2    1
    23    54    55    1
    24    54    38    1
    25    39    38   ar
    26    39    48   ar
    27    46    47    1
    28    46    48   ar
    29    16    13    1
    30    15    13    1
    31    38    37   ar
    32    48    49   ar
    33    13    27    1
    34    13    14    1
    35    27     1    1
    36     2    33    1
    37     2     1    2
    38    33    34    1
    39     1    17    1
    40    37    53    1
    41    37    51   ar
    42    57    53    2
    43    49    50    1
    44    49    51   ar
    45    53    56    1
    46    51    52    1
    47    29    28    1
    48    17    28   am
    49    17    35    2
    50    28    18    1
    51    56    58    1
    52    18    30   ar
    53    18    19   ar
    54    30    25   ar
    55    20    19    1
    56    19    21   ar
    57    25    26    1
    58    25    23   ar
    59    21    23   ar
    60    21    22    1
    61    23    24    1
