@<TRIPOS>MOLECULE
2-Ethynylpyridine
 26 26 0 0 0
SMALL
GASTEIGER

@<TRIPOS>ATOM
      1 N           0.7938   11.2130    3.0627 N.ar    1  LIG1       -0.2467
      2 C           0.8037   11.2145    1.7270 C.ar    1  LIG1        0.1131
      3 C           1.1935   12.3245    1.0001 C.ar    1  LIG1       -0.0278
      4 H           1.1927   12.3035    0.0708 H       1  LIG1        0.0645
      5 C           1.5858   13.4686    1.6721 C.ar    1  LIG1       -0.0577
      6 H           1.8540   14.2261    1.2033 H       1  LIG1        0.0619
      7 C           1.5900   13.4739    3.0219 C.ar    1  LIG1       -0.0435
      8 H           1.8449   14.2279    3.5032 H       1  LIG1        0.0633
      9 C           1.1885   12.3350    3.6689 C.ar    1  LIG1        0.0290
     10 H           1.2044   12.3403    4.5990 H       1  LIG1        0.0830
     11 C           0.4040    9.9982    1.0750 C.1     1  LIG1       -0.0498
     12 C           0.1108    8.9814    0.5404 C.1     1  LIG1       -0.1124
     13 H          -0.0167    8.2519   -0.0225 H       1  LIG1        0.1232
     14 N           3.7364   10.8347    6.3752 N.ar    2  LIG2       -0.2467
     15 C           5.0032   10.4275    6.6208 C.ar    2  LIG2        0.1131
     16 C           5.3097    9.1187    6.9289 C.ar    2  LIG2       -0.0278
     17 H           6.1893    8.8642    7.0921 H       2  LIG2        0.0645
     18 C           4.2869    8.1961    6.9988 C.ar    2  LIG2       -0.0577
     19 H           4.4693    7.3090    7.2145 H       2  LIG2        0.0619
     20 C           3.0143    8.5843    6.7457 C.ar    2  LIG2       -0.0435
     21 H           2.3163    7.9703    6.7699 H       2  LIG2        0.0633
     22 C           2.7894    9.8964    6.4584 C.ar    2  LIG2        0.0290
     23 H           1.9082   10.1588    6.3144 H       2  LIG2        0.0830
     24 C           6.0185   11.4512    6.5392 C.1     2  LIG2       -0.0498
     25 C           6.8231   12.3107    6.4651 C.1     2  LIG2       -0.1124
     26 H           7.3562   13.1397    6.5159 H       2  LIG2        0.1232
@<TRIPOS>BOND
     1    13    12    1
     2     4     3    1
     3    12    11    3
     4     3     5   ar
     5     3     2   ar
     6    11     2    1
     7     6     5    1
     8     5     7   ar
     9     2     1   ar
    10     7     8    1
    11     7     9   ar
    12     1     9   ar
    13     9    10    1
    14    23    22    1
    15    14    22   ar
    16    14    15   ar
    17    22    20   ar
    18    25    26    1
    19    25    24    3
    20    24    15    1
    21    15    16   ar
    22    20    21    1
    23    20    18   ar
    24    16    18   ar
    25    16    17    1
    26    18    19    1
