@<TRIPOS>MOLECULE
(H4TETA)(suc)
 28 26 0 0 0
SMALL
GASTEIGER

@<TRIPOS>ATOM
      1 N           3.6874    2.5840    1.8582 N.4     1  LIG1        0.2345
      2 H           2.9148    3.0414    1.9169 H       1  LIG1        0.2018
      3 H           4.3634    3.1771    1.8733 H       1  LIG1        0.2018
      4 C           0.2181    4.2857    1.7461 C.2     2  LIG2        0.3565
      5 C           3.9672    2.4032    4.3544 C.3     1  LIG1        0.0057
      6 H           3.3864    3.1799    4.3479 H       1  LIG1        0.0866
      7 H           3.6783    1.8247    5.0773 H       1  LIG1        0.0866
      8 O          -0.3276    5.4254    1.6917 O.co2   2  LIG2       -0.2464
      9 O          -1.7822    0.5999    0.2312 O.co2   2  LIG2       -0.2464
     10 C          -1.1250    0.6291    1.3016 C.2     2  LIG2        0.3565
     11 O           1.4521    4.1016    1.9424 O.co2   2  LIG2       -0.2464
     12 O          -1.3298   -0.1792    2.2570 O.co2   2  LIG2       -0.2464
     13 N           5.3627    2.8477    4.6223 N.4     1  LIG1        0.2223
     14 H           5.3935    3.2743    5.4031 H       1  LIG1        0.1996
     15 H           5.6295    3.3963    3.9743 H       1  LIG1        0.1996
     16 H           5.8998    2.1383    4.6505 H       1  LIG1        0.1996
     17 C           3.7193    1.8267    0.5698 C.3     1  LIG1        0.0076
     18 H           3.1087    1.0737    0.6149 H       1  LIG1        0.0867
     19 H           4.6135    1.4845    0.4104 H       1  LIG1        0.0867
     20 C           3.8094    1.6587    3.0340 C.3     1  LIG1        0.0075
     21 H           4.5763    1.0801    2.9027 H       1  LIG1        0.0867
     22 H           3.0193    1.0985    3.0785 H       1  LIG1        0.0867
     23 C          -0.0637    1.7152    1.4710 C.3     2  LIG2        0.0594
     24 H           0.5333    1.7091    0.7062 H       2  LIG2        0.0384
     25 H           0.4618    1.5349    2.2660 H       2  LIG2        0.0384
     26 C          -0.7251    3.0930    1.5950 C.3     2  LIG2        0.0594
     27 H          -1.2735    3.2376    0.8085 H       2  LIG2        0.0384
     28 H          -1.3181    3.0763    2.3628 H       2  LIG2        0.0384
@<TRIPOS>BOND
     1     9    10   ar
     2    19    17    1
     3    17    18    1
     4    17     1    1
     5    24    23    1
     6    27    26    1
     7    10    23    1
     8    10    12   ar
     9    23    26    1
    10    23    25    1
    11    26     4    1
    12    26    28    1
    13     8     4   ar
    14     4    11   ar
    15     1     3    1
    16     1     2    1
    17     1    20    1
    18    21    20    1
    19    20    22    1
    20    20     5    1
    21    15    13    1
    22     6     5    1
    23     5    13    1
    24     5     7    1
    25    13    16    1
    26    13    14    1
