@<TRIPOS>MOLECULE
?
 18 17 0 0 0
SMALL
GASTEIGER

@<TRIPOS>ATOM
      1 O          -2.5628   -5.7067   -0.0428 O.2     1  LIG1       -0.2755
      2 N          -5.0747   -1.1686   -0.7899 N.ar    1  LIG1       -0.2631
      3 N          -4.7233   -5.3554   -0.6472 N.am    1  LIG1       -0.2854
      4 H          -5.4488   -5.7682   -0.8537 H       1  LIG1        0.1548
      5 C          -6.0792   -2.0027   -1.0853 C.ar    1  LIG1        0.0293
      6 H          -6.8961   -1.6304   -1.3293 H       1  LIG1        0.0830
      7 C          -5.9814   -3.3684   -1.0504 C.ar    1  LIG1       -0.0223
      8 H          -6.7139   -3.8969   -1.2721 H       1  LIG1        0.0651
      9 C          -4.7797   -3.9592   -0.6814 C.ar    1  LIG1        0.0362
     10 C          -3.7239   -3.1183   -0.3644 C.ar    1  LIG1       -0.0223
     11 H          -2.8985   -3.4632   -0.1118 H       1  LIG1        0.0651
     12 C          -3.9299   -1.7565   -0.4341 C.ar    1  LIG1        0.0293
     13 H          -3.2150   -1.2031   -0.2157 H       1  LIG1        0.0830
     14 C          -3.6651   -6.1361   -0.3354 C.2     1  LIG1        0.2177
     15 C          -3.9672   -7.6184   -0.3900 C.3     1  LIG1        0.0325
     16 H          -3.9676   -7.9094   -1.3155 H       1  LIG1        0.0363
     17 H          -4.8534   -7.7761   -0.0283 H       1  LIG1        0.0363
     18 O           0.7992   -1.4343   -4.7101 O.3     2  HOH2        0.0000
@<TRIPOS>BOND
     1     6     5    1
     2    16    15    1
     3     8     7    1
     4     5     7   ar
     5     5     2   ar
     6     7     9   ar
     7     4     3    1
     8     2    12   ar
     9     9     3    1
    10     9    10   ar
    11     3    14   am
    12    12    10   ar
    13    12    13    1
    14    15    14    1
    15    15    17    1
    16    10    11    1
    17    14     1    2
