@<TRIPOS>MOLECULE
4504137.cif
 71 72 0 0 0
SMALL
GASTEIGER

@<TRIPOS>ATOM
      1 O           0.2796   -1.2593   -1.6406 O.3     1  LIG1       -0.3812
      2 O           6.4862   -2.3457    2.5382 O.co2   2  LIG2       -0.2406
      3 C           2.4279   -0.9854   -0.6425 C.3     1  LIG1        0.0322
      4 H           3.4008   -0.9828   -0.8723 H       1  LIG1        0.0932
      5 O           8.0837   -4.1017    3.8559 O.3     3  LIG3       -0.3875
      6 O           4.5417   -2.1896    1.5017 O.co2   2  LIG2       -0.2406
      7 C           1.7180    2.5960    1.5971 C.ar    1  LIG1       -0.0617
      8 H           1.5719    3.3935    2.0935 H       1  LIG1        0.0618
      9 C           1.6542   -1.0794   -1.9553 C.3     1  LIG1        0.1267
     10 H           1.9773   -1.8756   -2.4655 H       1  LIG1        0.0704
     11 C           1.3275    2.3311   -3.5968 C.ar    1  LIG1       -0.0614
     12 H           0.6843    3.0268   -3.6702 H       1  LIG1        0.0618
     13 N           2.1680   -2.2201    0.1899 N.4     1  LIG1        0.2262
     14 C           5.2260    0.3694    5.4876 C.ar    2  LIG2       -0.0581
     15 H           5.8090    0.6252    6.1917 H       2  LIG2        0.0620
     16 C           5.6558   -0.5612    4.5528 C.ar    2  LIG2       -0.0474
     17 H           6.5285   -0.9319    4.6215 H       2  LIG2        0.0626
     18 C           4.8224   -0.9567    3.5172 C.ar    2  LIG2        0.0632
     19 C           3.1707    0.3041   -3.3819 C.ar    1  LIG1       -0.0559
     20 H           3.8073   -0.3968   -3.3082 H       1  LIG1        0.0621
     21 C           0.7153    1.6393    1.5201 C.ar    1  LIG1       -0.0613
     22 H          -0.1127    1.7764    1.9651 H       1  LIG1        0.0618
     23 C           7.8721   -3.1808    6.0923 C.ar    3  LIG3       -0.0194
     24 C           5.3089   -1.9095    2.4619 C.2     2  LIG2        0.3865
     25 C           2.5597    2.4720   -4.2071 C.ar    1  LIG1       -0.0617
     26 H           2.7683    3.2617   -4.6940 H       1  LIG1        0.0618
     27 C           2.9185    2.4003    0.9641 C.ar    1  LIG1       -0.0613
     28 H           3.5963    3.0646    1.0138 H       1  LIG1        0.0618
     29 C           1.0193    1.1930   -2.8796 C.ar    1  LIG1       -0.0559
     30 H           0.1705    1.1133   -2.4622 H       1  LIG1        0.0621
     31 C           3.1403    1.2282    0.2508 C.ar    1  LIG1       -0.0532
     32 H           3.9772    1.0898   -0.1778 H       1  LIG1        0.0622
     33 C           3.9605    0.9319    5.4102 C.ar    2  LIG2       -0.0504
     34 C           6.2424   -1.8651    7.9755 C.ar    3  LIG3       -0.0504
     35 C           9.1776   -5.2469    5.6156 C.3     3  LIG3       -0.0348
     36 H           8.3925   -5.8277    5.6946 H       3  LIG3        0.0258
     37 H           9.6002   -5.1477    6.4945 H       3  LIG3        0.0258
     38 H           9.8172   -5.6450    4.9902 H       3  LIG3        0.0258
     39 C           0.9347    0.4803    0.7844 C.ar    1  LIG1       -0.0532
     40 H           0.2444   -0.1684    0.7110 H       1  LIG1        0.0622
     41 C           8.7502   -3.8869    5.1048 C.3     3  LIG3        0.0774
     42 H           9.5662   -3.3309    4.9441 H       3  LIG3        0.0641
     43 C           8.3049   -2.0257    6.7490 C.ar    3  LIG3       -0.0559
     44 H           9.1668   -1.6733    6.5604 H       3  LIG3        0.0621
     45 C           3.5557   -0.3876    3.4349 C.ar    2  LIG2       -0.0474
     46 H           2.9722   -0.6317    2.7255 H       2  LIG2        0.0626
     47 C           6.6155   -3.6794    6.4126 C.ar    3  LIG3       -0.0559
     48 H           6.3049   -4.4755    5.9975 H       3  LIG3        0.0621
     49 C           1.9332    0.1749   -2.7683 C.ar    1  LIG1       -0.0134
     50 C           2.1567    0.2637    0.1577 C.ar    1  LIG1        0.0029
     51 C           7.4960   -1.3913    7.6703 C.ar    3  LIG3       -0.0585
     52 H           7.8137   -0.6082    8.1042 H       3  LIG3        0.0620
     53 C           3.1420    0.5325    4.3813 C.ar    2  LIG2       -0.0581
     54 H           2.2682    0.8980    4.3187 H       2  LIG2        0.0620
     55 C           3.4914    1.9213    6.4659 C.3     2  LIG2       -0.0397
     56 H           2.5143    1.9891    6.4386 H       2  LIG2        0.0278
     57 H           3.8860    2.7997    6.2871 H       2  LIG2        0.0278
     58 H           3.7715    1.6106    7.3537 H       2  LIG2        0.0278
     59 C           5.8042   -3.0228    7.3385 C.ar    3  LIG3       -0.0585
     60 H           4.9423   -3.3700    7.5347 H       3  LIG3        0.0620
     61 C           5.3434   -1.1186    8.9096 C.3     3  LIG3       -0.0397
     62 H           5.8650   -0.7870    9.6710 H       3  LIG3        0.0278
     63 H           4.6377   -1.7163    9.2332 H       3  LIG3        0.0278
     64 H           4.9387   -0.3602    8.4366 H       3  LIG3        0.0278
     65 C           3.4878    1.4462   -4.1018 C.ar    1  LIG1       -0.0614
     66 H           4.3366    1.5245   -4.5195 H       1  LIG1        0.0618
     67 H           7.5943   -3.4327    3.5188 H       3  LIG3        0.2102
     68 H          -0.1073   -1.6968   -2.3766 H       1  LIG1        0.2105
     69 H           2.9567   -2.2841    0.8196 H       1  LIG1        0.2001
     70 H           1.3591   -2.0753    0.7604 H       1  LIG1        0.2001
     71 H           2.0744   -2.9498   -0.3489 H       1  LIG1        0.2001
@<TRIPOS>BOND
     1    26    25    1
     2    66    65    1
     3    25    65   ar
     4    25    11   ar
     5    65    19   ar
     6    12    11    1
     7    11    29   ar
     8    19    20    1
     9    19    49   ar
    10    29    49   ar
    11    29    30    1
    12    49     9    1
    13    10     9    1
    14    68     1    1
    15     9     1    1
    16     9     3    1
    17     4     3    1
    18     3    50    1
    19     3    13    1
    20    71    13    1
    21    32    31    1
    22    50    31   ar
    23    50    39   ar
    24    13    70    1
    25    13    69    1
    26    31    27   ar
    27    40    39    1
    28    39    21   ar
    29    27    28    1
    30    27     7   ar
    31     6    24   ar
    32    21     7   ar
    33    21    22    1
    34     7     8    1
    35    24     2   ar
    36    24    18    1
    37    46    45    1
    38    45    18   ar
    39    45    53   ar
    40    18    16   ar
    41    67     5    1
    42     5    41    1
    43    54    53    1
    44    53    33   ar
    45    16    17    1
    46    16    14   ar
    47    42    41    1
    48    38    35    1
    49    41    35    1
    50    41    23    1
    51    33    14   ar
    52    33    55    1
    53    14    15    1
    54    35    36    1
    55    35    37    1
    56    48    47    1
    57    23    47   ar
    58    23    43   ar
    59    57    55    1
    60    47    59   ar
    61    56    55    1
    62    55    58    1
    63    44    43    1
    64    43    51   ar
    65    59    60    1
    66    59    34   ar
    67    51    34   ar
    68    51    52    1
    69    34    61    1
    70    64    61    1
    71    61    63    1
    72    61    62    1
