@<TRIPOS>MOLECULE
C40 H30 N2
 288 324 0 0 0
SMALL
GASTEIGER

@<TRIPOS>ATOM
      1 N           7.0085    6.3940    1.0026 N.pl3   1  LIG1       -0.3027
      2 N           7.5096    3.3460    0.1558 N.pl3   1  LIG1       -0.3027
      3 N           6.4477    2.9041    9.6212 N.pl3   2  LIG2       -0.3027
      4 N           6.2378   -0.2766    9.3663 N.pl3   2  LIG2       -0.3027
      5 N          15.1497    1.2248    0.9758 N.pl3   3  LIG3       -0.3027
      6 N          11.8765    1.4409    1.4327 N.pl3   3  LIG3       -0.3027
      7 N          14.4682   -2.3773    9.8621 N.pl3   4  LIG4       -0.3027
      8 N          11.1719   -2.1727   10.0129 N.pl3   4  LIG4       -0.3027
      9 C           3.9271    6.4784   -1.9532 C.ar    1  LIG1       -0.0229
     10 C           3.3185    7.6717   -2.2792 C.ar    1  LIG1       -0.0565
     11 C           2.2636    7.7272   -3.2436 C.ar    1  LIG1       -0.0577
     12 C           1.8219    6.5867   -3.8755 C.ar    1  LIG1       -0.0391
     13 C           2.4520    5.3832   -3.5421 C.ar    1  LIG1       -0.0109
     14 C           2.0684    4.2622   -4.2848 C.ar    1  LIG1       -0.0391
     15 C           2.7507    3.0903   -4.0572 C.ar    1  LIG1       -0.0577
     16 C           3.8008    3.0347   -3.0883 C.ar    1  LIG1       -0.0565
     17 C           4.1634    4.1464   -2.3533 C.ar    1  LIG1       -0.0229
     18 C           3.4769    5.3356   -2.6113 C.ar    1  LIG1       -0.0086
     19 C           0.7801    6.2425   -4.9339 C.3     1  LIG1       -0.0231
     20 C           0.9892    4.7199   -5.2503 C.3     1  LIG1       -0.0231
     21 C           5.0584    6.1162   -0.9993 C.3     1  LIG1        0.0672
     22 C           6.3260    6.8784   -1.2650 C.ar    1  LIG1       -0.0097
     23 C           6.6037    7.4539   -2.4984 C.ar    1  LIG1       -0.0556
     24 C           7.8144    8.0867   -2.7417 C.ar    1  LIG1       -0.0613
     25 C           8.7615    8.1579   -1.7403 C.ar    1  LIG1       -0.0600
     26 C           8.5017    7.6062   -0.5024 C.ar    1  LIG1       -0.0400
     27 C           7.2891    6.9583   -0.2477 C.ar    1  LIG1        0.0381
     28 C           5.6754    6.3289    1.4179 C.ar    1  LIG1        0.0381
     29 C           5.3229    6.2939    2.7729 C.ar    1  LIG1       -0.0400
     30 C           3.9973    6.2922    3.1519 C.ar    1  LIG1       -0.0600
     31 C           2.9992    6.3542    2.2062 C.ar    1  LIG1       -0.0613
     32 C           3.3412    6.3452    0.8639 C.ar    1  LIG1       -0.0556
     33 C           4.6654    6.3004    0.4437 C.ar    1  LIG1       -0.0097
     34 C           8.0724    6.2885    1.9889 C.3     1  LIG1        0.0058
     35 C           5.2812    4.3934   -1.3442 C.3     1  LIG1        0.0672
     36 C           5.1079    3.5702   -0.0869 C.ar    1  LIG1       -0.0097
     37 C           3.8387    3.3222    0.4162 C.ar    1  LIG1       -0.0556
     38 C           3.6490    2.7289    1.6516 C.ar    1  LIG1       -0.0613
     39 C           4.7487    2.3562    2.3922 C.ar    1  LIG1       -0.0600
     40 C           6.0196    2.5424    1.9030 C.ar    1  LIG1       -0.0400
     41 C           6.2321    3.1567    0.6639 C.ar    1  LIG1        0.0381
     42 C           7.6880    3.5936   -1.2064 C.ar    1  LIG1        0.0381
     43 C           8.9156    3.3125   -1.8324 C.ar    1  LIG1       -0.0400
     44 C           9.0769    3.5526   -3.1711 C.ar    1  LIG1       -0.0600
     45 C           8.0603    4.0790   -3.9221 C.ar    1  LIG1       -0.0613
     46 C           6.8530    4.3401   -3.3166 C.ar    1  LIG1       -0.0556
     47 C           6.6250    4.1028   -1.9637 C.ar    1  LIG1       -0.0097
     48 C           8.6624    2.9779    0.9649 C.3     1  LIG1        0.0058
     49 C           3.2783    2.8735    6.7373 C.ar    2  LIG2       -0.0229
     50 C           2.6072    4.0574    6.5172 C.ar    2  LIG2       -0.0565
     51 C           1.6146    4.1682    5.4927 C.ar    2  LIG2       -0.0577
     52 C           1.3065    3.0922    4.6846 C.ar    2  LIG2       -0.0391
     53 C           2.0060    1.9066    4.9112 C.ar    2  LIG2       -0.0109
     54 C           1.6926    0.8425    4.0575 C.ar    2  LIG2       -0.0391
     55 C           2.4014   -0.3263    4.2224 C.ar    2  LIG2       -0.0577
     56 C           3.3873   -0.4374    5.2561 C.ar    2  LIG2       -0.0565
     57 C           3.6678    0.6185    6.0951 C.ar    2  LIG2       -0.0229
     58 C           2.9623    1.8038    5.9037 C.ar    2  LIG2       -0.0086
     59 C           0.3407    2.8257    3.5379 C.3     2  LIG2       -0.0231
     60 C           0.5993    1.3298    3.1276 C.3     2  LIG2       -0.0231
     61 C           4.4124    2.4808    7.6817 C.3     2  LIG2        0.0672
     62 C           5.6893    3.2132    7.3434 C.ar    2  LIG2       -0.0097
     63 C           5.9418    3.6934    6.0603 C.ar    2  LIG2       -0.0556
     64 C           7.1339    4.3062    5.7371 C.ar    2  LIG2       -0.0613
     65 C           8.0984    4.4754    6.7124 C.ar    2  LIG2       -0.0600
     66 C           7.8774    4.0179    7.9885 C.ar    2  LIG2       -0.0400
     67 C           6.6805    3.3727    8.3174 C.ar    2  LIG2        0.0381
     68 C           5.1366    2.7846   10.0756 C.ar    2  LIG2        0.0381
     69 C           4.8414    2.7722   11.4451 C.ar    2  LIG2       -0.0400
     70 C           3.5320    2.6957   11.8759 C.ar    2  LIG2       -0.0600
     71 C           2.4965    2.6721   10.9649 C.ar    2  LIG2       -0.0613
     72 C           2.7869    2.6650    9.6093 C.ar    2  LIG2       -0.0556
     73 C           4.0945    2.6848    9.1438 C.ar    2  LIG2       -0.0097
     74 C           7.5558    2.9064   10.5650 C.3     2  LIG2        0.0058
     75 C           4.5737    0.7666    7.3128 C.3     2  LIG2        0.0672
     76 C           4.0165   -0.0346    8.4739 C.ar    2  LIG2       -0.0097
     77 C           2.6470   -0.2559    8.6057 C.ar    2  LIG2       -0.0556
     78 C           2.1077   -0.8212    9.7357 C.ar    2  LIG2       -0.0613
     79 C           2.9476   -1.1976   10.7493 C.ar    2  LIG2       -0.0600
     80 C           4.3076   -1.0351   10.6537 C.ar    2  LIG2       -0.0400
     81 C           4.8692   -0.4564    9.5000 C.ar    2  LIG2        0.0381
     82 C           6.8011   -0.1248    8.0911 C.ar    2  LIG2        0.0381
     83 C           8.1230   -0.4545    7.8460 C.ar    2  LIG2       -0.0400
     84 C           8.6506   -0.3221    6.5907 C.ar    2  LIG2       -0.0600
     85 C           7.8829    0.1434    5.5424 C.ar    2  LIG2       -0.0613
     86 C           6.5540    0.4834    5.7841 C.ar    2  LIG2       -0.0556
     87 C           6.0037    0.3612    7.0452 C.ar    2  LIG2       -0.0097
     88 C           7.1234   -0.5834   10.4868 C.3     2  LIG2        0.0058
     89 C          14.7914    5.3647    1.9670 C.ar    3  LIG3       -0.0229
     90 C          15.8211    5.9831    2.6561 C.ar    3  LIG3       -0.0565
     91 C          15.9877    7.4075    2.6238 C.ar    3  LIG3       -0.0577
     92 C          15.1328    8.1935    1.8748 C.ar    3  LIG3       -0.0391
     93 C          14.0857    7.5470    1.2022 C.ar    3  LIG3       -0.0109
     94 C          13.2967    8.3656    0.3872 C.ar    3  LIG3       -0.0391
     95 C          12.2947    7.7423   -0.3301 C.ar    3  LIG3       -0.0577
     96 C          12.0749    6.3258   -0.2361 C.ar    3  LIG3       -0.0565
     97 C          12.8907    5.5350    0.5497 C.ar    3  LIG3       -0.0229
     98 C          13.9101    6.1831    1.2596 C.ar    3  LIG3       -0.0086
     99 C          15.0484    9.6668    1.5160 C.3     3  LIG3       -0.0231
    100 C          13.8534    9.7737    0.5094 C.3     3  LIG3       -0.0231
    101 C          14.5132    3.9213    1.5459 C.3     3  LIG3        0.0672
    102 C          15.4980    3.5518    0.4367 C.ar    3  LIG3       -0.0097
    103 C          16.1873    4.5077   -0.3128 C.ar    3  LIG3       -0.0556
    104 C          17.0854    4.1515   -1.3041 C.ar    3  LIG3       -0.0613
    105 C          17.2895    2.8148   -1.5721 C.ar    3  LIG3       -0.0600
    106 C          16.6322    1.8442   -0.8470 C.ar    3  LIG3       -0.0400
    107 C          15.7509    2.2005    0.1784 C.ar    3  LIG3        0.0381
    108 C          14.8736    1.5578    2.3121 C.ar    3  LIG3        0.0381
    109 C          14.9003    0.5886    3.3154 C.ar    3  LIG3       -0.0400
    110 C          14.6571    0.9420    4.6245 C.ar    3  LIG3       -0.0600
    111 C          14.3821    2.2563    4.9631 C.ar    3  LIG3       -0.0613
    112 C          14.3670    3.2177    3.9703 C.ar    3  LIG3       -0.0556
    113 C          14.6033    2.8921    2.6434 C.ar    3  LIG3       -0.0097
    114 C          15.1696   -0.1644    0.5563 C.3     3  LIG3        0.0058
    115 C          12.9237    4.0554    0.9317 C.3     3  LIG3        0.0672
    116 C          11.9663    3.7844    2.0869 C.ar    3  LIG3       -0.0097
    117 C          11.5495    4.7792    2.9659 C.ar    3  LIG3       -0.0556
    118 C          10.8022    4.4911    4.0960 C.ar    3  LIG3       -0.0613
    119 C          10.4676    3.1844    4.3654 C.ar    3  LIG3       -0.0600
    120 C          10.8286    2.1689    3.5019 C.ar    3  LIG3       -0.0400
    121 C          11.5596    2.4551    2.3425 C.ar    3  LIG3        0.0381
    122 C          12.1283    1.7983    0.1029 C.ar    3  LIG3        0.0381
    123 C          11.8946    0.8997   -0.9430 C.ar    3  LIG3       -0.0400
    124 C          12.1302    1.2657   -2.2514 C.ar    3  LIG3       -0.0600
    125 C          12.5958    2.5302   -2.5518 C.ar    3  LIG3       -0.0613
    126 C          12.8258    3.4239   -1.5156 C.ar    3  LIG3       -0.0556
    127 C          12.6181    3.0843   -0.1848 C.ar    3  LIG3       -0.0097
    128 C          11.5630    0.0629    1.7629 C.3     3  LIG3        0.0058
    129 C          14.0781    1.7865   10.6968 C.ar    4  LIG4       -0.0229
    130 C          15.0677    2.4233   11.4167 C.ar    4  LIG4       -0.0565
    131 C          15.2287    3.8456   11.3599 C.ar    4  LIG4       -0.0577
    132 C          14.4159    4.6137   10.5561 C.ar    4  LIG4       -0.0391
    133 C          13.4080    3.9524    9.8435 C.ar    4  LIG4       -0.0109
    134 C          12.6469    4.7404    8.9710 C.ar    4  LIG4       -0.0391
    135 C          11.6858    4.1018    8.2264 C.ar    4  LIG4       -0.0577
    136 C          11.4673    2.6853    8.3416 C.ar    4  LIG4       -0.0565
    137 C          12.2474    1.9215    9.1796 C.ar    4  LIG4       -0.0229
    138 C          13.2262    2.5890    9.9268 C.ar    4  LIG4       -0.0086
    139 C          14.3363    6.0812   10.1582 C.3     4  LIG4       -0.0231
    140 C          13.1944    6.1609    9.0890 C.3     4  LIG4       -0.0231
    141 C          13.8200    0.3351   10.3070 C.3     4  LIG4        0.0672
    142 C          13.8326   -0.6584   11.4388 C.ar    4  LIG4       -0.0097
    143 C          13.5121   -0.2981   12.7436 C.ar    4  LIG4       -0.0556
    144 C          13.4321   -1.2361   13.7569 C.ar    4  LIG4       -0.0613
    145 C          13.6839   -2.5606   13.4684 C.ar    4  LIG4       -0.0600
    146 C          14.0129   -2.9502   12.1905 C.ar    4  LIG4       -0.0400
    147 C          14.0975   -2.0100   11.1589 C.ar    4  LIG4        0.0381
    148 C          15.1058   -1.4354    9.0520 C.ar    4  LIG4        0.0381
    149 C          16.0009   -1.8257    8.0528 C.ar    4  LIG4       -0.0400
    150 C          16.6785   -0.8838    7.3070 C.ar    4  LIG4       -0.0600
    151 C          16.4811    0.4633    7.5415 C.ar    4  LIG4       -0.0613
    152 C          15.5768    0.8581    8.5085 C.ar    4  LIG4       -0.0556
    153 C          14.8629   -0.0659    9.2733 C.ar    4  LIG4       -0.0097
    154 C          14.4981   -3.7754    9.4767 C.3     4  LIG4        0.0058
    155 C          12.2661    0.4424    9.5843 C.3     4  LIG4        0.0672
    156 C          12.0734   -0.5390    8.4586 C.ar    4  LIG4       -0.0097
    157 C          12.4404   -0.2179    7.1549 C.ar    4  LIG4       -0.0556
    158 C          12.3463   -1.1444    6.1248 C.ar    4  LIG4       -0.0613
    159 C          11.8819   -2.4148    6.3926 C.ar    4  LIG4       -0.0600
    160 C          11.4795   -2.7564    7.6721 C.ar    4  LIG4       -0.0400
    161 C          11.5670   -1.8273    8.7173 C.ar    4  LIG4        0.0381
    162 C          10.8159   -1.1508   10.9012 C.ar    4  LIG4        0.0381
    163 C          10.0299   -1.4301   12.0229 C.ar    4  LIG4       -0.0400
    164 C           9.6418   -0.4275   12.8877 C.ar    4  LIG4       -0.0600
    165 C           9.9986    0.8856   12.6366 C.ar    4  LIG4       -0.0613
    166 C          10.7880    1.1653   11.5355 C.ar    4  LIG4       -0.0556
    167 C          11.2348    0.1705   10.6692 C.ar    4  LIG4       -0.0097
    168 C          10.8511   -3.5477   10.3373 C.3     4  LIG4        0.0058
    169 H           3.6063    8.4698   -1.8533 H       1  LIG1        0.0621
    170 H           1.8571    8.5588   -3.4562 H       1  LIG1        0.0621
    171 H           2.5134    2.3082   -4.5428 H       1  LIG1        0.0621
    172 H           4.2611    2.2167   -2.9381 H       1  LIG1        0.0621
    173 H          -0.0961    6.4084   -4.6071 H       1  LIG1        0.0316
    174 H           0.9278    6.7578   -5.7180 H       1  LIG1        0.0316
    175 H           1.2656    4.5871   -6.1509 H       1  LIG1        0.0316
    176 H           0.1836    4.2416   -5.0921 H       1  LIG1        0.0316
    177 H           5.9474    7.4078   -3.1850 H       1  LIG1        0.0621
    178 H           7.9929    8.4650   -3.5935 H       1  LIG1        0.0618
    179 H           9.5862    8.6013   -1.9002 H       1  LIG1        0.0618
    180 H           9.1562    7.6558    0.1843 H       1  LIG1        0.0636
    181 H           6.0066    6.2733    3.4318 H       1  LIG1        0.0636
    182 H           3.7720    6.2368    4.0734 H       1  LIG1        0.0618
    183 H           2.0886    6.4175    2.4722 H       1  LIG1        0.0618
    184 H           2.6528    6.3671    0.2104 H       1  LIG1        0.0621
    185 H           3.0844    3.5674   -0.1078 H       1  LIG1        0.0621
    186 H           2.7698    2.5784    1.9784 H       1  LIG1        0.0618
    187 H           4.6326    1.9707    3.2528 H       1  LIG1        0.0618
    188 H           6.7747    2.2579    2.4061 H       1  LIG1        0.0636
    189 H           9.6347    2.9742   -1.3108 H       1  LIG1        0.0636
    190 H           9.9059    3.3362   -3.5814 H       1  LIG1        0.0618
    191 H           8.1871    4.2666   -4.8453 H       1  LIG1        0.0618
    192 H           6.1420    4.7024   -3.8317 H       1  LIG1        0.0621
    193 H           2.8055    4.8127    7.0584 H       2  LIG2        0.0621
    194 H           1.1574    4.9899    5.3633 H       2  LIG2        0.0621
    195 H           2.2345   -1.0633    3.6457 H       2  LIG2        0.0621
    196 H           3.8601   -1.2532    5.3755 H       2  LIG2        0.0621
    197 H          -0.5600    2.9650    3.8091 H       2  LIG2        0.0316
    198 H           0.5427    3.3967    2.8077 H       2  LIG2        0.0316
    199 H           0.8754    1.2578    2.2218 H       2  LIG2        0.0316
    200 H          -0.1947    0.8229    3.2563 H       2  LIG2        0.0316
    201 H           5.2685    3.6005    5.3964 H       2  LIG2        0.0621
    202 H           7.2947    4.6020    4.8487 H       2  LIG2        0.0618
    203 H           8.9059    4.9292    6.5021 H       2  LIG2        0.0618
    204 H           8.5461    4.1224    8.6544 H       2  LIG2        0.0636
    205 H           5.5491    2.8114   12.0758 H       2  LIG2        0.0636
    206 H           3.3436    2.6527   12.8060 H       2  LIG2        0.0618
    207 H           1.5950    2.6754   11.2639 H       2  LIG2        0.0618
    208 H           2.0742    2.6390    8.9812 H       2  LIG2        0.0621
    209 H           2.0783   -0.0155    7.8842 H       2  LIG2        0.0621
    210 H           1.1689   -0.9470    9.8157 H       2  LIG2        0.0618
    211 H           2.5825   -1.5783   11.5386 H       2  LIG2        0.0618
    212 H           4.8774   -1.3124   11.3613 H       2  LIG2        0.0636
    213 H           8.6695   -0.7613    8.5605 H       2  LIG2        0.0636
    214 H           9.5620   -0.5412    6.4343 H       2  LIG2        0.0618
    215 H           8.2451    0.2130    4.6679 H       2  LIG2        0.0618
    216 H           6.0182    0.8200    5.0748 H       2  LIG2        0.0621
    217 H          16.4222    5.4501    3.1641 H       3  LIG3        0.0621
    218 H          16.6915    7.8145    3.1154 H       3  LIG3        0.0621
    219 H          11.7375    8.2641   -0.8953 H       3  LIG3        0.0621
    220 H          11.3607    5.9242   -0.7180 H       3  LIG3        0.0621
    221 H          14.8800   10.1895    2.2914 H       3  LIG3        0.0316
    222 H          15.8561    9.9580    1.1074 H       3  LIG3        0.0316
    223 H          14.1567   10.0852   -0.3355 H       3  LIG3        0.0316
    224 H          13.1877   10.3632    0.8432 H       3  LIG3        0.0316
    225 H          16.0327    5.4276   -0.1321 H       3  LIG3        0.0621
    226 H          17.5646    4.8139   -1.7889 H       3  LIG3        0.0618
    227 H          17.8824    2.5543   -2.2688 H       3  LIG3        0.0618
    228 H          16.7742    0.9254   -1.0431 H       3  LIG3        0.0636
    229 H          15.0938   -0.3124    3.0894 H       3  LIG3        0.0636
    230 H          14.6766    0.2741    5.2973 H       3  LIG3        0.0618
    231 H          14.2223    2.4952    5.8693 H       3  LIG3        0.0618
    232 H          14.1792    4.1217    4.1933 H       3  LIG3        0.0621
    233 H          11.7841    5.6814    2.7799 H       3  LIG3        0.0621
    234 H          10.5202    5.1866    4.6784 H       3  LIG3        0.0618
    235 H           9.9910    2.9758    5.1599 H       3  LIG3        0.0618
    236 H          10.5774    1.2716    3.6891 H       3  LIG3        0.0636
    237 H          11.5769    0.0269   -0.7424 H       3  LIG3        0.0636
    238 H          11.9544    0.6504   -2.9538 H       3  LIG3        0.0618
    239 H          12.7656    2.7824   -3.4510 H       3  LIG3        0.0618
    240 H          13.1354    4.3008   -1.7177 H       3  LIG3        0.0621
    241 H          15.6489    1.9038   11.9593 H       4  LIG4        0.0621
    242 H          15.8975    4.2652   11.8880 H       4  LIG4        0.0621
    243 H          11.1516    4.6095    7.6269 H       4  LIG4        0.0621
    244 H          10.7837    2.2651    7.8321 H       4  LIG4        0.0621
    245 H          14.1241    6.6186   10.9110 H       4  LIG4        0.0316
    246 H          15.1640    6.3679    9.7862 H       4  LIG4        0.0316
    247 H          13.5412    6.4520    8.2545 H       4  LIG4        0.0316
    248 H          12.5107    6.7547    9.3741 H       4  LIG4        0.0316
    249 H          13.3443    0.6178   12.9294 H       4  LIG4        0.0621
    250 H          13.2157   -0.9731   14.6436 H       4  LIG4        0.0618
    251 H          13.6227   -3.2169   14.1516 H       4  LIG4        0.0618
    252 H          14.1910   -3.8654   12.0028 H       4  LIG4        0.0636
    253 H          16.1394   -2.7503    7.8877 H       4  LIG4        0.0636
    254 H          17.2772   -1.1666    6.6255 H       4  LIG4        0.0618
    255 H          16.9786    1.1094    7.0532 H       4  LIG4        0.0618
    256 H          15.4266    1.7854    8.6544 H       4  LIG4        0.0621
    257 H          12.7616    0.6576    6.9732 H       4  LIG4        0.0621
    258 H          12.6049   -0.9041    5.2417 H       4  LIG4        0.0618
    259 H          11.8287   -3.0582    5.6937 H       4  LIG4        0.0618
    260 H          11.1521   -3.6290    7.8512 H       4  LIG4        0.0636
    261 H           9.7701   -2.3282   12.1905 H       4  LIG4        0.0636
    262 H           9.1213   -0.6416   13.6526 H       4  LIG4        0.0618
    263 H           9.7038    1.5809   13.2110 H       4  LIG4        0.0618
    264 H          11.0404    2.0643   11.3613 H       4  LIG4        0.0621
    265 H           7.8540    5.6102    2.6182 H       1  LIG1        0.0432
    266 H           8.8854    6.0670    1.5525 H       1  LIG1        0.0432
    267 H           8.1707    7.1191    2.4392 H       1  LIG1        0.0432
    268 H           9.4136    3.4927    0.6937 H       1  LIG1        0.0432
    269 H           8.4742    3.1494    1.8793 H       1  LIG1        0.0432
    270 H           8.8499    2.0551    0.8467 H       1  LIG1        0.0432
    271 H           7.3625    2.3127   11.2813 H       2  LIG2        0.0432
    272 H           8.3479    2.6259   10.1252 H       2  LIG2        0.0432
    273 H           7.6756    3.7862   10.9058 H       2  LIG2        0.0432
    274 H           7.8916   -0.0244   10.4503 H       2  LIG2        0.0432
    275 H           6.6568   -0.4304   11.3004 H       2  LIG2        0.0432
    276 H           7.3907   -1.4941   10.4416 H       2  LIG2        0.0432
    277 H          14.5148   -0.6517    1.0431 H       3  LIG3        0.0432
    278 H          14.9796   -0.2163   -0.3720 H       3  LIG3        0.0432
    279 H          16.0282   -0.5333    0.7250 H       3  LIG3        0.0432
    280 H          11.9887   -0.5164    1.1405 H       3  LIG3        0.0432
    281 H          11.8720   -0.1336    2.6391 H       3  LIG3        0.0432
    282 H          10.6230   -0.0654    1.7211 H       3  LIG3        0.0432
    283 H          13.8134   -4.2454    9.9391 H       4  LIG4        0.0432
    284 H          14.3565   -3.8492    8.5414 H       4  LIG4        0.0432
    285 H          15.3437   -4.1489    9.6992 H       4  LIG4        0.0432
    286 H          11.3771   -4.1295    9.8018 H       4  LIG4        0.0432
    287 H          11.0435   -3.7029   11.2552 H       4  LIG4        0.0432
    288 H           9.9293   -3.7124   10.1738 H       4  LIG4        0.0432
@<TRIPOS>BOND
     1   175    20    1
     2   174    19    1
     3    20   176    1
     4    20    19    1
     5    20    14    1
     6    19   173    1
     7    19    12    1
     8   191    45    1
     9   171    15    1
    10    14    15   ar
    11    14    13   ar
    12    15    16   ar
    13    45    46   ar
    14    45    44   ar
    15    12    13   ar
    16    12    11   ar
    17   192    46    1
    18   178    24    1
    19   190    44    1
    20    13    18   ar
    21   170    11    1
    22   239   125    1
    23    46    47   ar
    24    11    10   ar
    25   177    23    1
    26    44    43   ar
    27    16   172    1
    28    16    17   ar
    29   238   124    1
    30    24    23   ar
    31    24    25   ar
    32    18    17   ar
    33    18     9   ar
    34   125   124   ar
    35   125   126   ar
    36    23    22   ar
    37    17    35    1
    38    10     9   ar
    39    10   169    1
    40   227   105    1
    41   124   123   ar
    42    47    35    1
    43    47    42   ar
    44     9    21    1
    45   179    25    1
    46    43   189    1
    47    43    42   ar
    48   226   104    1
    49    25    26   ar
    50   240   126    1
    51   105   104   ar
    52   105   106   ar
    53   126   127   ar
    54    35    21    1
    55    35    36    1
    56   104   103   ar
    57    22    21    1
    58    22    27   ar
    59    42     2    1
    60   228   106    1
    61    21    33    1
    62   123   237    1
    63   123   122   ar
    64   219    95    1
    65   106   107   ar
    66   220    96    1
    67    26    27   ar
    68    26   180    1
    69   278   114    1
    70   223   100    1
    71    95    96   ar
    72    95    94   ar
    73   103   225    1
    74   103   102   ar
    75    27     1    1
    76    96    97   ar
    77   127   122   ar
    78   127   115    1
    79   185    37    1
    80    36    37   ar
    81    36    41   ar
    82   122     6    1
    83     2    41    1
    84     2    48    1
    85   107   102   ar
    86   107     5    1
    87   184    32    1
    88    94   100    1
    89    94    93   ar
    90    37    38   ar
    91   102   101    1
    92    33    32   ar
    93    33    28   ar
    94   100   224    1
    95   100    99    1
    96    97   115    1
    97    97    98   ar
    98   114   279    1
    99   114     5    1
   100   114   277    1
   101    41    40   ar
   102   268    48    1
   103   270    48    1
   104    32    31   ar
   105   115   101    1
   106   115   116    1
   107    48   269    1
   108     5   108    1
   109     1    28    1
   110     1    34    1
   111   222    99    1
   112   280   128    1
   113    93    98   ar
   114    93    92   ar
   115    98    89   ar
   116    28    29   ar
   117     6   128    1
   118     6   121    1
   119    99    92    1
   120    99   221    1
   121   101    89    1
   122   101   113    1
   123   266    34    1
   124    38   186    1
   125    38    39   ar
   126   282   128    1
   127   128   281    1
   128    92    91   ar
   129    40    39   ar
   130    40   188    1
   131    89    90   ar
   132    34   267    1
   133    34   265    1
   134   116   121   ar
   135   116   117   ar
   136    31   183    1
   137    31    30   ar
   138   199    60    1
   139   108   113   ar
   140   108   109   ar
   141   121   120   ar
   142    39   187    1
   143    91    90   ar
   144    91   218    1
   145   113   112   ar
   146    90   217    1
   147    29    30   ar
   148    29   181    1
   149   233   117    1
   150   198    59    1
   151   117   118   ar
   152   229   109    1
   153    60   200    1
   154    60    59    1
   155    60    54    1
   156    30   182    1
   157   109   110   ar
   158   120   236    1
   159   120   119   ar
   160    59   197    1
   161    59    52    1
   162   195    55    1
   163   112   232    1
   164   112   111   ar
   165    54    55   ar
   166    54    53   ar
   167   118   119   ar
   168   118   234    1
   169    55    56   ar
   170   119   235    1
   171   110   111   ar
   172   110   230    1
   173   215    85    1
   174    52    53   ar
   175    52    51   ar
   176   202    64    1
   177    53    58   ar
   178   111   231    1
   179   216    86    1
   180   258   158    1
   181    56   196    1
   182    56    57   ar
   183   194    51    1
   184   201    63    1
   185    51    50   ar
   186    85    86   ar
   187    85    84   ar
   188   259   159    1
   189    64    63   ar
   190    64    65   ar
   191    86    87   ar
   192    58    57   ar
   193    58    49   ar
   194    63    62   ar
   195    57    75    1
   196   158   159   ar
   197   158   157   ar
   198   159   160   ar
   199   214    84    1
   200   203    65    1
   201    50    49   ar
   202    50   193    1
   203    84    83   ar
   204   254   150    1
   205    65    66   ar
   206    49    61    1
   207   257   157    1
   208    87    75    1
   209    87    82   ar
   210   255   151    1
   211   157   156   ar
   212   150   151   ar
   213   150   149   ar
   214    75    61    1
   215    75    76    1
   216    62    61    1
   217    62    67   ar
   218   151   152   ar
   219   243   135    1
   220   160   260    1
   221   160   161   ar
   222    61    73    1
   223   244   136    1
   224    83    82   ar
   225    83   213    1
   226   209    77    1
   227   253   149    1
   228    66    67   ar
   229    66   204    1
   230   149   148   ar
   231    82     4    1
   232   135   136   ar
   233   135   134   ar
   234   247   140    1
   235    67     3    1
   236   136   137   ar
   237   156   161   ar
   238   156   155    1
   239    76    77   ar
   240    76    81   ar
   241   152   256    1
   242   152   153   ar
   243   284   154    1
   244    77    78   ar
   245   161     8    1
   246   134   140    1
   247   134   133   ar
   248   208    72    1
   249   148   153   ar
   250   148     7    1
   251   140   248    1
   252   140   139    1
   253    73    72   ar
   254    73    68   ar
   255   137   155    1
   256   137   138   ar
   257   153   141    1
   258     4    81    1
   259     4    88    1
   260   154   285    1
   261   154     7    1
   262   154   283    1
   263    81    80   ar
   264   155   141    1
   265   155   167    1
   266    72    71   ar
   267     3    68    1
   268     3    74    1
   269    78   210    1
   270    78    79   ar
   271   246   139    1
   272   286   168    1
   273   133   138   ar
   274   133   132   ar
   275     7   147    1
   276   138   129   ar
   277     8   168    1
   278     8   162    1
   279    68    69   ar
   280   272    74    1
   281   139   132    1
   282   139   245    1
   283   288   168    1
   284   141   129    1
   285   141   142    1
   286   168   287    1
   287   276    88    1
   288   274    88    1
   289    88   275    1
   290   132   131   ar
   291    74   273    1
   292    74   271    1
   293    80    79   ar
   294    80   212    1
   295   167   162   ar
   296   167   166   ar
   297   129   130   ar
   298    79   211    1
   299   162   163   ar
   300    71   207    1
   301    71    70   ar
   302   147   142   ar
   303   147   146   ar
   304   131   130   ar
   305   131   242    1
   306   264   166    1
   307   130   241    1
   308   142   143   ar
   309    69    70   ar
   310    69   205    1
   311   166   165   ar
   312    70   206    1
   313   252   146    1
   314   163   261    1
   315   163   164   ar
   316   146   145   ar
   317   165   164   ar
   318   165   263    1
   319   143   249    1
   320   143   144   ar
   321   164   262    1
   322   145   144   ar
   323   145   251    1
   324   144   250    1
