@<TRIPOS>MOLECULE
1,3,5-Cyclohexane tricarboxylic acid mono hydrate
 30 29 0 0 0
SMALL
GASTEIGER

@<TRIPOS>ATOM
      1 O           7.3315    4.8402    0.3849 O.3     1  LIG1       -0.4804
      2 O           6.2560    5.6757   -1.3854 O.2     1  LIG1       -0.2507
      3 O          10.5842    4.9598   -5.9588 O.2     1  LIG1       -0.2507
      4 O           8.5006    5.7004   -5.7006 O.3     1  LIG1       -0.4804
      5 O          12.7936   11.1818   -1.6544 O.3     2  HOH2       -0.4105
      6 C           9.6554    5.3349   -5.2327 C.2     1  LIG1        0.3079
      7 C           9.8228    5.4548   -3.7395 C.3     1  LIG1        0.0578
      8 C           9.1762    6.8418   -1.2148 C.3     1  LIG1       -0.0271
      9 O          12.1371    8.7296   -2.2676 O.3     1  LIG1       -0.4804
     10 C           8.6403    5.4273   -1.4962 C.3     1  LIG1        0.0578
     11 O          10.4789    9.2519   -0.9423 O.2     1  LIG1       -0.2507
     12 C           8.5147    5.1758   -3.0017 C.3     1  LIG1       -0.0271
     13 C           7.2901    5.3177   -0.8402 C.2     1  LIG1        0.3079
     14 C          10.3472    6.8735   -3.4508 C.3     1  LIG1       -0.0271
     15 C          10.4989    7.0843   -1.9363 C.3     1  LIG1        0.0578
     16 C          11.0155    8.4761   -1.6615 C.2     1  LIG1        0.3079
     17 H           9.7132    7.5032   -3.8065 H       1  LIG1        0.0281
     18 H           7.8351    5.7394   -3.3572 H       1  LIG1        0.0281
     19 H          10.5272    4.8368   -3.4713 H       1  LIG1        0.0414
     20 H          11.1753    6.4973   -1.6030 H       1  LIG1        0.0414
     21 H           9.2358    4.8023   -1.0811 H       1  LIG1        0.0414
     22 H           8.2800    4.2511   -3.1505 H       1  LIG1        0.0281
     23 H           9.2884    6.9658   -0.2667 H       1  LIG1        0.0281
     24 H           8.5275    7.4825   -1.5503 H       1  LIG1        0.0281
     25 H          11.1939    7.0002   -3.8821 H       1  LIG1        0.0281
     26 H          12.5491    9.8320   -2.0623 H       1  LIG1        0.2951
     27 H           8.4350    5.6016   -6.4749 H       1  LIG1        0.2951
     28 H           6.5298    4.8023    0.6846 H       1  LIG1        0.2951
     29 H          13.8194   11.4512   -1.6116 H       0  HOH0        0.2052
     30 H          12.4504   11.3065   -0.5134 H       0  HOH0        0.2052
@<TRIPOS>BOND
     1    27     4    1
     2     3     6    2
     3     4     6    1
     4     6     7    1
     5    25    14    1
     6    17    14    1
     7     7    19    1
     8     7    14    1
     9     7    12    1
    10    14    15    1
    11    18    12    1
    12    22    12    1
    13    12    10    1
    14     9    26    1
    15     9    16    1
    16    15    16    1
    17    15    20    1
    18    15     8    1
    19    16    11    2
    20     5    29    1
    21     5    30    1
    22    24     8    1
    23    10     8    1
    24    10    21    1
    25    10    13    1
    26     2    13    2
    27     8    23    1
    28    13     1    1
    29     1    28    1
