@<TRIPOS>MOLECULE
C40 H30 N2
 288 324 0 0 0
SMALL
GASTEIGER

@<TRIPOS>ATOM
      1 N           6.9433    6.3719    1.0015 N.pl3   1  LIG1       -0.3027
      2 N           7.4670    3.3290    0.1623 N.pl3   1  LIG1       -0.3027
      3 N           6.3976    2.8932    9.6118 N.pl3   2  LIG2       -0.3027
      4 N           6.1809   -0.2822    9.3751 N.pl3   2  LIG2       -0.3027
      5 N          15.0777    1.2084    0.9814 N.pl3   3  LIG3       -0.3027
      6 N          11.8097    1.4216    1.4381 N.pl3   3  LIG3       -0.3027
      7 N          14.4022   -2.3875    9.8566 N.pl3   4  LIG4       -0.3027
      8 N          11.1120   -2.1886   10.0000 N.pl3   4  LIG4       -0.3027
      9 C           3.8594    6.4567   -1.9451 C.ar    1  LIG1       -0.0229
     10 C           3.2474    7.6526   -2.2751 C.ar    1  LIG1       -0.0565
     11 C           2.1919    7.6992   -3.2435 C.ar    1  LIG1       -0.0577
     12 C           1.7574    6.5523   -3.8677 C.ar    1  LIG1       -0.0391
     13 C           2.3981    5.3536   -3.5293 C.ar    1  LIG1       -0.0109
     14 C           2.0277    4.2319   -4.2794 C.ar    1  LIG1       -0.0391
     15 C           2.7225    3.0611   -4.0558 C.ar    1  LIG1       -0.0577
     16 C           3.7683    3.0054   -3.0788 C.ar    1  LIG1       -0.0565
     17 C           4.1142    4.1256   -2.3414 C.ar    1  LIG1       -0.0229
     18 C           3.4176    5.3048   -2.6002 C.ar    1  LIG1       -0.0086
     19 C           0.7203    6.2076   -4.9284 C.3     1  LIG1       -0.0231
     20 C           0.9566    4.6867   -5.2543 C.3     1  LIG1       -0.0231
     21 C           4.9907    6.0984   -0.9930 C.3     1  LIG1        0.0672
     22 C           6.2566    6.8642   -1.2606 C.ar    1  LIG1       -0.0097
     23 C           6.5326    7.4460   -2.4985 C.ar    1  LIG1       -0.0556
     24 C           7.7390    8.0769   -2.7423 C.ar    1  LIG1       -0.0613
     25 C           8.6873    8.1428   -1.7389 C.ar    1  LIG1       -0.0600
     26 C           8.4374    7.5875   -0.5029 C.ar    1  LIG1       -0.0400
     27 C           7.2228    6.9373   -0.2473 C.ar    1  LIG1        0.0381
     28 C           5.6122    6.3053    1.4270 C.ar    1  LIG1        0.0381
     29 C           5.2599    6.2694    2.7853 C.ar    1  LIG1       -0.0400
     30 C           3.9319    6.2706    3.1650 C.ar    1  LIG1       -0.0600
     31 C           2.9245    6.3426    2.2156 C.ar    1  LIG1       -0.0613
     32 C           3.2688    6.3391    0.8750 C.ar    1  LIG1       -0.0556
     33 C           4.5964    6.2849    0.4576 C.ar    1  LIG1       -0.0097
     34 C           8.0089    6.2585    1.9832 C.3     1  LIG1        0.0058
     35 C           5.2265    4.3767   -1.3331 C.3     1  LIG1        0.0672
     36 C           5.0627    3.5593   -0.0694 C.ar    1  LIG1       -0.0097
     37 C           3.7959    3.3162    0.4444 C.ar    1  LIG1       -0.0556
     38 C           3.6116    2.7296    1.6910 C.ar    1  LIG1       -0.0613
     39 C           4.7172    2.3537    2.4159 C.ar    1  LIG1       -0.0600
     40 C           5.9889    2.5321    1.9242 C.ar    1  LIG1       -0.0400
     41 C           6.1970    3.1467    0.6808 C.ar    1  LIG1        0.0381
     42 C           7.6433    3.5723   -1.1976 C.ar    1  LIG1        0.0381
     43 C           8.8729    3.2777   -1.8404 C.ar    1  LIG1       -0.0400
     44 C           9.0222    3.5253   -3.1800 C.ar    1  LIG1       -0.0600
     45 C           8.0061    4.0619   -3.9278 C.ar    1  LIG1       -0.0613
     46 C           6.8020    4.3299   -3.3070 C.ar    1  LIG1       -0.0556
     47 C           6.5779    4.0884   -1.9515 C.ar    1  LIG1       -0.0097
     48 C           8.6240    2.9581    0.9616 C.3     1  LIG1        0.0058
     49 C           3.2298    2.8628    6.7270 C.ar    2  LIG2       -0.0229
     50 C           2.5462    4.0446    6.5090 C.ar    2  LIG2       -0.0565
     51 C           1.5563    4.1511    5.4810 C.ar    2  LIG2       -0.0577
     52 C           1.2596    3.0760    4.6731 C.ar    2  LIG2       -0.0391
     53 C           1.9719    1.8947    4.8925 C.ar    2  LIG2       -0.0109
     54 C           1.6809    0.8267    4.0302 C.ar    2  LIG2       -0.0391
     55 C           2.3979   -0.3396    4.1948 C.ar    2  LIG2       -0.0577
     56 C           3.3825   -0.4447    5.2311 C.ar    2  LIG2       -0.0565
     57 C           3.6430    0.6094    6.0807 C.ar    2  LIG2       -0.0229
     58 C           2.9282    1.7896    5.8853 C.ar    2  LIG2       -0.0086
     59 C           0.2979    2.8000    3.5232 C.3     2  LIG2       -0.0231
     60 C           0.5838    1.3101    3.0982 C.3     2  LIG2       -0.0231
     61 C           4.3623    2.4694    7.6716 C.3     2  LIG2        0.0672
     62 C           5.6341    3.2088    7.3326 C.ar    2  LIG2       -0.0097
     63 C           5.8855    3.6874    6.0465 C.ar    2  LIG2       -0.0556
     64 C           7.0801    4.3014    5.7244 C.ar    2  LIG2       -0.0613
     65 C           8.0403    4.4710    6.7093 C.ar    2  LIG2       -0.0600
     66 C           7.8216    4.0162    7.9864 C.ar    2  LIG2       -0.0400
     67 C           6.6277    3.3628    8.3151 C.ar    2  LIG2        0.0381
     68 C           5.0852    2.7699   10.0710 C.ar    2  LIG2        0.0381
     69 C           4.7793    2.7541   11.4418 C.ar    2  LIG2       -0.0400
     70 C           3.4701    2.6697   11.8715 C.ar    2  LIG2       -0.0600
     71 C           2.4326    2.6472   10.9600 C.ar    2  LIG2       -0.0613
     72 C           2.7323    2.6446    9.6041 C.ar    2  LIG2       -0.0556
     73 C           4.0406    2.6697    9.1363 C.ar    2  LIG2       -0.0097
     74 C           7.5000    2.8994   10.5623 C.3     2  LIG2        0.0058
     75 C           4.5346    0.7581    7.3078 C.3     2  LIG2        0.0672
     76 C           3.9692   -0.0418    8.4574 C.ar    2  LIG2       -0.0097
     77 C           2.5920   -0.2566    8.5771 C.ar    2  LIG2       -0.0556
     78 C           2.0335   -0.8174    9.7060 C.ar    2  LIG2       -0.0613
     79 C           2.8659   -1.1930   10.7289 C.ar    2  LIG2       -0.0600
     80 C           4.2339   -1.0479   10.6466 C.ar    2  LIG2       -0.0400
     81 C           4.8089   -0.4580    9.4925 C.ar    2  LIG2        0.0381
     82 C           6.7556   -0.1313    8.1037 C.ar    2  LIG2        0.0381
     83 C           8.0857   -0.4714    7.8725 C.ar    2  LIG2       -0.0400
     84 C           8.6281   -0.3386    6.6157 C.ar    2  LIG2       -0.0600
     85 C           7.8714    0.1285    5.5566 C.ar    2  LIG2       -0.0613
     86 C           6.5348    0.4741    5.7860 C.ar    2  LIG2       -0.0556
     87 C           5.9675    0.3552    7.0447 C.ar    2  LIG2       -0.0097
     88 C           7.0489   -0.5746   10.5052 C.3     2  LIG2        0.0058
     89 C          14.7013    5.3445    1.9718 C.ar    3  LIG3       -0.0229
     90 C          15.7298    5.9575    2.6606 C.ar    3  LIG3       -0.0565
     91 C          15.8937    7.3816    2.6264 C.ar    3  LIG3       -0.0577
     92 C          15.0358    8.1701    1.8779 C.ar    3  LIG3       -0.0391
     93 C          13.9925    7.5300    1.2082 C.ar    3  LIG3       -0.0109
     94 C          13.2008    8.3462    0.3929 C.ar    3  LIG3       -0.0391
     95 C          12.2026    7.7302   -0.3304 C.ar    3  LIG3       -0.0577
     96 C          11.9849    6.3055   -0.2351 C.ar    3  LIG3       -0.0565
     97 C          12.8017    5.5186    0.5519 C.ar    3  LIG3       -0.0229
     98 C          13.8149    6.1672    1.2686 C.ar    3  LIG3       -0.0086
     99 C          14.9551    9.6441    1.5141 C.3     3  LIG3       -0.0231
    100 C          13.7552    9.7533    0.5128 C.3     3  LIG3       -0.0231
    101 C          14.4260    3.9049    1.5487 C.3     3  LIG3        0.0672
    102 C          15.4181    3.5400    0.4382 C.ar    3  LIG3       -0.0097
    103 C          16.1024    4.4938   -0.3134 C.ar    3  LIG3       -0.0556
    104 C          16.9974    4.1362   -1.3101 C.ar    3  LIG3       -0.0613
    105 C          17.2134    2.7976   -1.5836 C.ar    3  LIG3       -0.0600
    106 C          16.5615    1.8313   -0.8484 C.ar    3  LIG3       -0.0400
    107 C          15.6727    2.1829    0.1791 C.ar    3  LIG3        0.0381
    108 C          14.8015    1.5445    2.3138 C.ar    3  LIG3        0.0381
    109 C          14.8333    0.5749    3.3192 C.ar    3  LIG3       -0.0400
    110 C          14.5883    0.9278    4.6316 C.ar    3  LIG3       -0.0600
    111 C          14.2945    2.2370    4.9666 C.ar    3  LIG3       -0.0613
    112 C          14.2695    3.2034    3.9764 C.ar    3  LIG3       -0.0556
    113 C          14.5178    2.8789    2.6465 C.ar    3  LIG3       -0.0097
    114 C          15.1095   -0.1769    0.5572 C.3     3  LIG3        0.0058
    115 C          12.8380    4.0380    0.9361 C.3     3  LIG3        0.0672
    116 C          11.8804    3.7617    2.0931 C.ar    3  LIG3       -0.0097
    117 C          11.4541    4.7645    2.9676 C.ar    3  LIG3       -0.0556
    118 C          10.7081    4.4756    4.1017 C.ar    3  LIG3       -0.0613
    119 C          10.3787    3.1603    4.3753 C.ar    3  LIG3       -0.0600
    120 C          10.7508    2.1484    3.5097 C.ar    3  LIG3       -0.0400
    121 C          11.4852    2.4338    2.3524 C.ar    3  LIG3        0.0381
    122 C          12.0616    1.7791    0.1105 C.ar    3  LIG3        0.0381
    123 C          11.8339    0.8731   -0.9347 C.ar    3  LIG3       -0.0400
    124 C          12.0692    1.2360   -2.2474 C.ar    3  LIG3       -0.0600
    125 C          12.5169    2.5071   -2.5459 C.ar    3  LIG3       -0.0613
    126 C          12.7472    3.4112   -1.5150 C.ar    3  LIG3       -0.0556
    127 C          12.5405    3.0704   -0.1845 C.ar    3  LIG3       -0.0097
    128 C          11.5073    0.0392    1.7738 C.3     3  LIG3        0.0058
    129 C          13.9885    1.7749   10.6896 C.ar    4  LIG4       -0.0229
    130 C          14.9756    2.4104   11.4124 C.ar    4  LIG4       -0.0565
    131 C          15.1339    3.8319   11.3503 C.ar    4  LIG4       -0.0577
    132 C          14.3208    4.5984   10.5376 C.ar    4  LIG4       -0.0391
    133 C          13.3103    3.9357    9.8277 C.ar    4  LIG4       -0.0109
    134 C          12.5594    4.7218    8.9507 C.ar    4  LIG4       -0.0391
    135 C          11.5965    4.0816    8.1998 C.ar    4  LIG4       -0.0577
    136 C          11.3838    2.6653    8.3215 C.ar    4  LIG4       -0.0565
    137 C          12.1617    1.9032    9.1668 C.ar    4  LIG4       -0.0229
    138 C          13.1332    2.5714    9.9169 C.ar    4  LIG4       -0.0086
    139 C          14.2477    6.0635   10.1355 C.3     4  LIG4       -0.0231
    140 C          13.1023    6.1431    9.0655 C.3     4  LIG4       -0.0231
    141 C          13.7377    0.3245   10.2978 C.3     4  LIG4        0.0672
    142 C          13.7491   -0.6719   11.4310 C.ar    4  LIG4       -0.0097
    143 C          13.4173   -0.3072   12.7340 C.ar    4  LIG4       -0.0556
    144 C          13.3398   -1.2501   13.7525 C.ar    4  LIG4       -0.0613
    145 C          13.6081   -2.5749   13.4633 C.ar    4  LIG4       -0.0600
    146 C          13.9429   -2.9663   12.1809 C.ar    4  LIG4       -0.0400
    147 C          14.0262   -2.0212   11.1499 C.ar    4  LIG4        0.0381
    148 C          15.0374   -1.4473    9.0479 C.ar    4  LIG4        0.0381
    149 C          15.9413   -1.8397    8.0513 C.ar    4  LIG4       -0.0400
    150 C          16.6106   -0.8938    7.2981 C.ar    4  LIG4       -0.0600
    151 C          16.4091    0.4602    7.5275 C.ar    4  LIG4       -0.0613
    152 C          15.4958    0.8485    8.5041 C.ar    4  LIG4       -0.0556
    153 C          14.7873   -0.0786    9.2650 C.ar    4  LIG4       -0.0097
    154 C          14.4392   -3.7871    9.4684 C.3     4  LIG4        0.0058
    155 C          12.1890    0.4258    9.5753 C.3     4  LIG4        0.0672
    156 C          12.0083   -0.5559    8.4461 C.ar    4  LIG4       -0.0097
    157 C          12.3822   -0.2355    7.1433 C.ar    4  LIG4       -0.0556
    158 C          12.3049   -1.1662    6.1133 C.ar    4  LIG4       -0.0613
    159 C          11.8468   -2.4375    6.3842 C.ar    4  LIG4       -0.0600
    160 C          11.4331   -2.7786    7.6560 C.ar    4  LIG4       -0.0400
    161 C          11.5110   -1.8500    8.7040 C.ar    4  LIG4        0.0381
    162 C          10.7409   -1.1752   10.8918 C.ar    4  LIG4        0.0381
    163 C           9.9511   -1.4582   12.0101 C.ar    4  LIG4       -0.0400
    164 C           9.5556   -0.4526   12.8776 C.ar    4  LIG4       -0.0600
    165 C           9.9055    0.8606   12.6291 C.ar    4  LIG4       -0.0613
    166 C          10.6983    1.1511   11.5219 C.ar    4  LIG4       -0.0556
    167 C          11.1529    0.1550   10.6570 C.ar    4  LIG4       -0.0097
    168 C          10.8030   -3.5699   10.3301 C.3     4  LIG4        0.0058
    169 H           3.5272    8.4549   -1.8517 H       1  LIG1        0.0621
    170 H           1.7895    8.5314   -3.4622 H       1  LIG1        0.0621
    171 H           2.5023    2.2820   -4.5520 H       1  LIG1        0.0621
    172 H           4.2324    2.1891   -2.9276 H       1  LIG1        0.0621
    173 H          -0.1605    6.3603   -4.6041 H       1  LIG1        0.0316
    174 H           0.8654    6.7273   -5.7095 H       1  LIG1        0.0316
    175 H           0.1538    4.1999   -5.1091 H       1  LIG1        0.0316
    176 H           1.2446    4.5639   -6.1520 H       1  LIG1        0.0316
    177 H           5.8788    7.4053   -3.1862 H       1  LIG1        0.0621
    178 H           7.9163    8.4606   -3.5940 H       1  LIG1        0.0618
    179 H           9.5144    8.5824   -1.8985 H       1  LIG1        0.0618
    180 H           9.0946    7.6406    0.1822 H       1  LIG1        0.0636
    181 H           5.9424    6.2407    3.4465 H       1  LIG1        0.0636
    182 H           3.7072    6.2181    4.0869 H       1  LIG1        0.0618
    183 H           2.0151    6.4011    2.4799 H       1  LIG1        0.0618
    184 H           2.5809    6.3622    0.2204 H       1  LIG1        0.0621
    185 H           3.0367    3.5639   -0.0712 H       1  LIG1        0.0621
    186 H           2.7366    2.5914    2.0322 H       1  LIG1        0.0618
    187 H           4.5997    1.9562    3.2713 H       1  LIG1        0.0618
    188 H           6.7414    2.2515    2.4313 H       1  LIG1        0.0636
    189 H           9.5924    2.9177   -1.3328 H       1  LIG1        0.0636
    190 H           9.8465    3.3049   -3.5993 H       1  LIG1        0.0618
    191 H           8.1272    4.2451   -4.8522 H       1  LIG1        0.0618
    192 H           6.0972    4.7081   -3.8179 H       1  LIG1        0.0621
    193 H           2.7346    4.8010    7.0527 H       2  LIG2        0.0621
    194 H           1.0989    4.9735    5.3520 H       2  LIG2        0.0621
    195 H           2.2417   -1.0743    3.6131 H       2  LIG2        0.0621
    196 H           3.8642   -1.2574    5.3433 H       2  LIG2        0.0621
    197 H          -0.6037    2.9180    3.7971 H       2  LIG2        0.0316
    198 H           0.4869    3.3833    2.7958 H       2  LIG2        0.0316
    199 H          -0.2023    0.7902    3.2140 H       2  LIG2        0.0316
    200 H           0.8664    1.2563    2.1936 H       2  LIG2        0.0316
    201 H           5.2163    3.5922    5.3781 H       2  LIG2        0.0621
    202 H           7.2429    4.5998    4.8383 H       2  LIG2        0.0618
    203 H           8.8529    4.9149    6.4991 H       2  LIG2        0.0618
    204 H           8.4856    4.1420    8.6545 H       2  LIG2        0.0636
    205 H           5.4814    2.7978   12.0785 H       2  LIG2        0.0636
    206 H           3.2826    2.6253   12.8022 H       2  LIG2        0.0618
    207 H           1.5303    2.6460   11.2576 H       2  LIG2        0.0618
    208 H           2.0196    2.6094    8.9756 H       2  LIG2        0.0621
    209 H           2.0308   -0.0053    7.8528 H       2  LIG2        0.0621
    210 H           1.0948   -0.9436    9.7721 H       2  LIG2        0.0618
    211 H           2.4877   -1.5599   11.5179 H       2  LIG2        0.0618
    212 H           4.7930   -1.3438   11.3566 H       2  LIG2        0.0636
    213 H           8.6260   -0.7848    8.5886 H       2  LIG2        0.0636
    214 H           9.5373   -0.5682    6.4679 H       2  LIG2        0.0618
    215 H           8.2457    0.1979    4.6856 H       2  LIG2        0.0618
    216 H           6.0136    0.8153    5.0691 H       2  LIG2        0.0621
    217 H          16.3337    5.4237    3.1637 H       3  LIG3        0.0621
    218 H          16.5958    7.7822    3.1255 H       3  LIG3        0.0621
    219 H          11.6424    8.2503   -0.8937 H       3  LIG3        0.0621
    220 H          11.2746    5.9026   -0.7202 H       3  LIG3        0.0621
    221 H          15.7608    9.9326    1.1020 H       3  LIG3        0.0316
    222 H          14.7881   10.1715    2.2873 H       3  LIG3        0.0316
    223 H          14.0582   10.0663   -0.3315 H       3  LIG3        0.0316
    224 H          13.0920   10.3438    0.8504 H       3  LIG3        0.0316
    225 H          15.9471    5.4134   -0.1371 H       3  LIG3        0.0621
    226 H          17.4650    4.8023   -1.8014 H       3  LIG3        0.0618
    227 H          17.8104    2.5411   -2.2769 H       3  LIG3        0.0618
    228 H          16.7109    0.9136   -1.0447 H       3  LIG3        0.0636
    229 H          15.0304   -0.3275    3.0960 H       3  LIG3        0.0636
    230 H          14.6203    0.2601    5.3052 H       3  LIG3        0.0618
    231 H          14.1228    2.4695    5.8709 H       3  LIG3        0.0618
    232 H          14.0717    4.1050    4.2032 H       3  LIG3        0.0621
    233 H          11.6806    5.6665    2.7767 H       3  LIG3        0.0621
    234 H          10.4297    5.1717    4.6856 H       3  LIG3        0.0618
    235 H           9.8950    2.9492    5.1663 H       3  LIG3        0.0618
    236 H          10.5005    1.2502    3.6947 H       3  LIG3        0.0636
    237 H          11.5229   -0.0020   -0.7341 H       3  LIG3        0.0636
    238 H          11.9124    0.6123   -2.9467 H       3  LIG3        0.0618
    239 H          12.6718    2.7603   -3.4483 H       3  LIG3        0.0618
    240 H          13.0536    4.2863   -1.7233 H       3  LIG3        0.0621
    241 H          15.5534    1.8926   11.9605 H       4  LIG4        0.0621
    242 H          15.8057    4.2486   11.8772 H       4  LIG4        0.0621
    243 H          11.0609    4.5844    7.5976 H       4  LIG4        0.0621
    244 H          10.7047    2.2471    7.8059 H       4  LIG4        0.0621
    245 H          14.0349    6.6060   10.8863 H       4  LIG4        0.0316
    246 H          15.0745    6.3463    9.7634 H       4  LIG4        0.0316
    247 H          12.4198    6.7406    9.3487 H       4  LIG4        0.0316
    248 H          13.4508    6.4345    8.2311 H       4  LIG4        0.0316
    249 H          13.2436    0.6082   12.9219 H       4  LIG4        0.0621
    250 H          13.1151   -0.9849   14.6365 H       4  LIG4        0.0618
    251 H          13.5499   -3.2315   14.1471 H       4  LIG4        0.0618
    252 H          14.1232   -3.8794   11.9935 H       4  LIG4        0.0636
    253 H          16.0889   -2.7643    7.8875 H       4  LIG4        0.0636
    254 H          17.2143   -1.1737    6.6206 H       4  LIG4        0.0618
    255 H          16.8930    1.1079    7.0302 H       4  LIG4        0.0618
    256 H          15.3465    1.7747    8.6545 H       4  LIG4        0.0621
    257 H          12.6950    0.6418    6.9590 H       4  LIG4        0.0621
    258 H          12.5723   -0.9285    5.2340 H       4  LIG4        0.0618
    259 H          11.8076   -3.0842    5.6904 H       4  LIG4        0.0618
    260 H          11.1010   -3.6512    7.8319 H       4  LIG4        0.0636
    261 H           9.6868   -2.3557   12.1739 H       4  LIG4        0.0636
    262 H           9.0313   -0.6670   13.6404 H       4  LIG4        0.0618
    263 H           9.6132    1.5547   13.2082 H       4  LIG4        0.0618
    264 H          10.9435    2.0527   11.3513 H       4  LIG4        0.0621
    265 H           8.0741    7.0651    2.4799 H       1  LIG1        0.0432
    266 H           7.8194    5.5376    2.5719 H       1  LIG1        0.0432
    267 H           7.8621   -0.0912   10.4160 H       2  LIG2        0.0432
    268 H           6.6115   -0.3143   11.3080 H       2  LIG2        0.0432
    269 H           7.5909    3.7686   10.9348 H       2  LIG2        0.0432
    270 H           7.3236    2.2749   11.2559 H       2  LIG2        0.0432
    271 H           8.4650    3.1768    1.8725 H       1  LIG1        0.0432
    272 H           8.7776    2.0246    0.8816 H       1  LIG1        0.0432
    273 H           9.3871    3.4311    0.6508 H       1  LIG1        0.0432
    274 H           8.8319    6.0946    1.5376 H       1  LIG1        0.0432
    275 H           8.3048    2.6609   10.1175 H       2  LIG2        0.0432
    276 H           7.2342   -1.5066   10.5322 H       2  LIG2        0.0432
    277 H          15.9800   -0.5309    0.6959 H       3  LIG3        0.0432
    278 H          14.4815   -0.6783    1.0621 H       3  LIG3        0.0432
    279 H          14.8891   -0.2305   -0.3644 H       3  LIG3        0.0432
    280 H          10.5765   -0.1166    1.6643 H       3  LIG3        0.0432
    281 H          11.9956   -0.5396    1.2009 H       3  LIG3        0.0432
    282 H          11.7529   -0.1276    2.6760 H       3  LIG3        0.0432
    283 H          15.2848   -4.1559    9.6923 H       4  LIG4        0.0432
    284 H          13.7561   -4.2607    9.9266 H       4  LIG4        0.0432
    285 H          14.3014   -3.8596    8.5313 H       4  LIG4        0.0432
    286 H          10.9841   -3.7248   11.2490 H       4  LIG4        0.0432
    287 H           9.8846   -3.7382   10.1556 H       4  LIG4        0.0432
    288 H          11.3368   -4.1494    9.7999 H       4  LIG4        0.0432
@<TRIPOS>BOND
     1   176    20    1
     2   174    19    1
     3    20   175    1
     4    20    19    1
     5    20    14    1
     6    19   173    1
     7    19    12    1
     8   191    45    1
     9   171    15    1
    10    14    15   ar
    11    14    13   ar
    12    15    16   ar
    13    45    46   ar
    14    45    44   ar
    15    12    13   ar
    16    12    11   ar
    17   192    46    1
    18   190    44    1
    19   178    24    1
    20    13    18   ar
    21   170    11    1
    22   239   125    1
    23    46    47   ar
    24    11    10   ar
    25   177    23    1
    26    44    43   ar
    27    16   172    1
    28    16    17   ar
    29   238   124    1
    30    24    23   ar
    31    24    25   ar
    32    18    17   ar
    33    18     9   ar
    34   125   124   ar
    35   125   126   ar
    36    23    22   ar
    37    17    35    1
    38   227   105    1
    39    10     9   ar
    40    10   169    1
    41   124   123   ar
    42    47    35    1
    43    47    42   ar
    44     9    21    1
    45   179    25    1
    46    43   189    1
    47    43    42   ar
    48   226   104    1
    49    25    26   ar
    50   240   126    1
    51   105   104   ar
    52   105   106   ar
    53   126   127   ar
    54    35    21    1
    55    35    36    1
    56   104   103   ar
    57    22    21    1
    58    22    27   ar
    59    42     2    1
    60   228   106    1
    61    21    33    1
    62   123   237    1
    63   123   122   ar
    64   219    95    1
    65   106   107   ar
    66   220    96    1
    67    26    27   ar
    68    26   180    1
    69   279   114    1
    70   223   100    1
    71    95    96   ar
    72    95    94   ar
    73   103   225    1
    74   103   102   ar
    75    27     1    1
    76    96    97   ar
    77   127   122   ar
    78   127   115    1
    79   185    37    1
    80    36    37   ar
    81    36    41   ar
    82   122     6    1
    83     2    41    1
    84     2    48    1
    85   107   102   ar
    86   107     5    1
    87   184    32    1
    88    94   100    1
    89    94    93   ar
    90   102   101    1
    91    37    38   ar
    92    33    32   ar
    93    33    28   ar
    94   100   224    1
    95   100    99    1
    96    97   115    1
    97    97    98   ar
    98   114   277    1
    99   114     5    1
   100   114   278    1
   101   273    48    1
   102    41    40   ar
   103    32    31   ar
   104   272    48    1
   105   115   101    1
   106   115   116    1
   107    48   271    1
   108     5   108    1
   109     1    28    1
   110     1    34    1
   111   221    99    1
   112   281   128    1
   113    93    98   ar
   114    93    92   ar
   115    98    89   ar
   116    28    29   ar
   117     6   128    1
   118     6   121    1
   119    99    92    1
   120    99   222    1
   121   274    34    1
   122   101    89    1
   123   101   113    1
   124   280   128    1
   125    38   186    1
   126    38    39   ar
   127   128   282    1
   128    92    91   ar
   129    40    39   ar
   130    40   188    1
   131    89    90   ar
   132    34   265    1
   133    34   266    1
   134   116   121   ar
   135   116   117   ar
   136   200    60    1
   137    31   183    1
   138    31    30   ar
   139   108   113   ar
   140   108   109   ar
   141   121   120   ar
   142    39   187    1
   143    91    90   ar
   144    91   218    1
   145   113   112   ar
   146    90   217    1
   147   233   117    1
   148    29    30   ar
   149    29   181    1
   150   198    59    1
   151   117   118   ar
   152   229   109    1
   153    60   199    1
   154    60    59    1
   155    60    54    1
   156    30   182    1
   157   109   110   ar
   158   120   236    1
   159   120   119   ar
   160    59   197    1
   161    59    52    1
   162   195    55    1
   163   112   232    1
   164   112   111   ar
   165    54    55   ar
   166    54    53   ar
   167   118   119   ar
   168   118   234    1
   169    55    56   ar
   170   119   235    1
   171   110   111   ar
   172   110   230    1
   173    52    53   ar
   174    52    51   ar
   175   215    85    1
   176   202    64    1
   177    53    58   ar
   178   111   231    1
   179   216    86    1
   180    56   196    1
   181    56    57   ar
   182   258   158    1
   183   194    51    1
   184   201    63    1
   185    51    50   ar
   186    85    86   ar
   187    85    84   ar
   188   259   159    1
   189    64    63   ar
   190    64    65   ar
   191    86    87   ar
   192    58    57   ar
   193    58    49   ar
   194    63    62   ar
   195    57    75    1
   196   158   159   ar
   197   158   157   ar
   198   159   160   ar
   199   214    84    1
   200   203    65    1
   201    50    49   ar
   202    50   193    1
   203    84    83   ar
   204   254   150    1
   205    65    66   ar
   206    49    61    1
   207   257   157    1
   208   255   151    1
   209    87    75    1
   210    87    82   ar
   211   157   156   ar
   212   150   151   ar
   213   150   149   ar
   214    75    61    1
   215    75    76    1
   216    62    61    1
   217    62    67   ar
   218   151   152   ar
   219   243   135    1
   220   160   260    1
   221   160   161   ar
   222    61    73    1
   223   244   136    1
   224   209    77    1
   225    83    82   ar
   226    83   213    1
   227   253   149    1
   228    66    67   ar
   229    66   204    1
   230   149   148   ar
   231    82     4    1
   232   135   136   ar
   233   135   134   ar
   234   248   140    1
   235    67     3    1
   236   136   137   ar
   237   156   161   ar
   238   156   155    1
   239    76    77   ar
   240    76    81   ar
   241   152   256    1
   242   152   153   ar
   243   285   154    1
   244    77    78   ar
   245   161     8    1
   246   134   140    1
   247   134   133   ar
   248   208    72    1
   249   148   153   ar
   250   148     7    1
   251   140   247    1
   252   140   139    1
   253    73    72   ar
   254    73    68   ar
   255   137   155    1
   256   137   138   ar
   257   153   141    1
   258     4    81    1
   259     4    88    1
   260   154   283    1
   261   154     7    1
   262   154   284    1
   263    81    80   ar
   264   155   141    1
   265   155   167    1
   266    72    71   ar
   267     3    68    1
   268     3    74    1
   269    78   210    1
   270    78    79   ar
   271   246   139    1
   272   288   168    1
   273   133   138   ar
   274   133   132   ar
   275     7   147    1
   276   138   129   ar
   277     8   168    1
   278     8   162    1
   279    68    69   ar
   280   275    74    1
   281   139   132    1
   282   139   245    1
   283   287   168    1
   284   141   129    1
   285   141   142    1
   286   168   286    1
   287   267    88    1
   288    88   276    1
   289    88   268    1
   290   132   131   ar
   291    74   269    1
   292    74   270    1
   293    80    79   ar
   294    80   212    1
   295   167   162   ar
   296   167   166   ar
   297   129   130   ar
   298    79   211    1
   299   162   163   ar
   300    71   207    1
   301    71    70   ar
   302   147   142   ar
   303   147   146   ar
   304   131   130   ar
   305   131   242    1
   306   264   166    1
   307   130   241    1
   308   142   143   ar
   309    69    70   ar
   310    69   205    1
   311   166   165   ar
   312    70   206    1
   313   252   146    1
   314   163   261    1
   315   163   164   ar
   316   146   145   ar
   317   165   164   ar
   318   165   263    1
   319   143   249    1
   320   143   144   ar
   321   164   262    1
   322   145   144   ar
   323   145   251    1
   324   144   250    1
