@<TRIPOS>MOLECULE
4505830.cif
 33 34 0 0 0
SMALL
GASTEIGER

@<TRIPOS>ATOM
      1 O           1.2598    2.6586    3.1307 O.3     1  LIG1       -0.4951
      2 O          11.3968    3.6619   -0.0344 O.2     1  LIG1       -0.2977
      3 C           0.6207    1.4646    2.6892 C.3     1  LIG1        0.0788
      4 H           0.6116    1.4123    1.7126 H       1  LIG1        0.0660
      5 H          -0.3136    1.5417    3.0283 H       1  LIG1        0.0660
      6 H           1.0599    0.6649    3.0662 H       1  LIG1        0.0660
      7 C           2.5488    2.8672    2.7151 C.ar    1  LIG1        0.1207
      8 C           3.2928    1.9839    1.9712 C.ar    1  LIG1       -0.0122
      9 H           2.9236    1.1239    1.6779 H       1  LIG1        0.0660
     10 C           4.6322    2.3180    1.6252 C.ar    1  LIG1       -0.0144
     11 C           5.4524    1.4306    0.8813 C.ar    1  LIG1       -0.0537
     12 H           5.0971    0.5649    0.6061 H       1  LIG1        0.0624
     13 C           6.7303    1.7826    0.5390 C.ar    1  LIG1       -0.0580
     14 H           7.2658    1.1357    0.0126 H       1  LIG1        0.0620
     15 C           7.2790    3.0309    0.9157 C.ar    1  LIG1       -0.0464
     16 C           6.5034    3.8972    1.6528 C.ar    1  LIG1       -0.0508
     17 H           6.8487    4.7605    1.9218 H       1  LIG1        0.0626
     18 C           5.1773    3.5647    2.0215 C.ar    1  LIG1       -0.0174
     19 C           4.3661    4.4517    2.7782 C.ar    1  LIG1       -0.0506
     20 H           4.7108    5.3136    3.0559 H       1  LIG1        0.0625
     21 C           3.0966    4.1068    3.1268 C.ar    1  LIG1       -0.0194
     22 H           2.5233    4.7075    3.6478 H       1  LIG1        0.0654
     23 C           8.6853    3.3953    0.5126 C.3     1  LIG1       -0.0210
     24 H           8.8049    4.3956    0.5825 H       1  LIG1        0.0317
     25 H           8.8353    3.1305   -0.4341 H       1  LIG1        0.0317
     26 C           9.7375    2.7333    1.3831 C.3     1  LIG1        0.0095
     27 H           9.6715    3.0481    2.3125 H       1  LIG1        0.0345
     28 H           9.6130    1.7594    1.3812 H       1  LIG1        0.0345
     29 C          11.1558    3.0005    0.9416 C.2     1  LIG1        0.1306
     30 C          12.2350    2.4102    1.7900 C.3     1  LIG1       -0.0061
     31 H          13.0774    2.4597    1.3969 H       1  LIG1        0.0306
     32 H          12.0052    1.4711    1.9415 H       1  LIG1        0.0306
     33 H          12.2910    2.8951    2.6676 H       1  LIG1        0.0306
@<TRIPOS>BOND
     1    25    23    1
     2     2    29    2
     3    14    13    1
     4    23    24    1
     5    23    15    1
     6    23    26    1
     7    13    11   ar
     8    13    15   ar
     9    12    11    1
    10    11    10   ar
    11    15    16   ar
    12    29    26    1
    13    29    30    1
    14    28    26    1
    15    26    27    1
    16    31    30    1
    17    10     8   ar
    18    10    18   ar
    19    16    17    1
    20    16    18   ar
    21     9     8    1
    22     4     3    1
    23    30    32    1
    24    30    33    1
    25     8     7   ar
    26    18    19   ar
    27     3     5    1
    28     3     6    1
    29     3     1    1
    30     7    21   ar
    31     7     1    1
    32    19    20    1
    33    19    21   ar
    34    21    22    1
