@<TRIPOS>MOLECULE
SVP-4N-AA (4-pyridyl)-CONH-(2-pyridyl), HOOC-(CH2)4-COOH
 44 43 0 0 0
SMALL
GASTEIGER

@<TRIPOS>ATOM
      1 N          -1.1468    3.1423    2.4049 N.ar    1  LIG1       -0.2632
      2 C          -0.2235    2.3284    2.9123 C.ar    1  LIG1        0.0283
      3 H          -0.5014    1.5304    3.2990 H       1  LIG1        0.0830
      4 C           1.1216    2.6122    2.8923 C.ar    1  LIG1       -0.0315
      5 H           1.7370    2.0074    3.2383 H       1  LIG1        0.0640
      6 C           1.5491    3.8142    2.3480 C.ar    1  LIG1        0.0399
      7 C           0.5950    4.6764    1.8300 C.ar    1  LIG1       -0.0315
      8 H           0.8403    5.4955    1.4633 H       1  LIG1        0.0640
      9 C          -0.7338    4.2867    1.8721 C.ar    1  LIG1        0.0283
     10 H          -1.3707    4.8575    1.5068 H       1  LIG1        0.0830
     11 C           3.0262    4.0595    2.2923 C.2     1  LIG1        0.2494
     12 N           3.4317    5.3639    2.2773 N.am    1  LIG1       -0.2664
     13 H           2.8616    5.9864    2.4257 H       1  LIG1        0.1566
     14 O           3.7865    3.1194    2.2638 O.2     1  LIG1       -0.2698
     15 N           4.9104    7.0847    2.6277 N.ar    1  LIG1       -0.2401
     16 C           4.7652    5.8018    2.2792 C.ar    1  LIG1        0.1251
     17 C           5.8498    4.9992    1.9484 C.ar    1  LIG1       -0.0215
     18 H           5.7299    4.1102    1.7001 H       1  LIG1        0.0652
     19 C           7.1103    5.5571    1.9977 C.ar    1  LIG1       -0.0571
     20 H           7.8527    5.0423    1.7772 H       1  LIG1        0.0619
     21 C           7.2721    6.8683    2.3715 C.ar    1  LIG1       -0.0435
     22 H           8.1176    7.2525    2.4172 H       1  LIG1        0.0633
     23 C           6.1450    7.5961    2.6776 C.ar    1  LIG1        0.0297
     24 H           6.2472    8.4847    2.9301 H       1  LIG1        0.0830
     25 C          -4.1515    1.3730    2.9365 C.2     2  LIG2        0.3047
     26 O          -3.7551    2.4707    2.3280 O.3     2  LIG2       -0.4806
     27 H          -2.7907    2.6056    2.4115 H       2  LIG2        0.2951
     28 O          -3.3881    0.6326    3.4823 O.2     2  LIG2       -0.2510
     29 C          -5.6300    1.1887    2.8310 C.3     2  LIG2        0.0448
     30 H          -5.8606    1.0971    1.8935 H       2  LIG2        0.0377
     31 H          -6.0618    1.9935    3.1591 H       2  LIG2        0.0377
     32 C          -6.1962    0.0036    3.5801 C.3     2  LIG2       -0.0425
     33 H          -5.8919    0.0318    4.5004 H       2  LIG2        0.0271
     34 H          -5.8658   -0.8149    3.1805 H       2  LIG2        0.0271
     35 C           1.8900    8.6372    3.1449 C.2     3  LIG3        0.3047
     36 O           3.1509    9.0001    3.2626 O.3     3  LIG3       -0.4806
     37 H           3.7070    8.2740    3.0321 H       3  LIG3        0.2951
     38 O           1.5560    7.5424    2.7484 O.2     3  LIG3       -0.2510
     39 C           0.9314    9.7061    3.5665 C.3     3  LIG3        0.0448
     40 H           1.1708   10.5299    3.1156 H       3  LIG3        0.0377
     41 H           1.0343    9.8541    4.5197 H       3  LIG3        0.0377
     42 C          -0.5211    9.4059    3.2804 C.3     3  LIG3       -0.0425
     43 H          -0.7507    8.5443    3.6621 H       3  LIG3        0.0271
     44 H          -0.6529    9.3513    2.3208 H       3  LIG3        0.0271
@<TRIPOS>BOND
     1     8     7    1
     2    10     9    1
     3    18    17    1
     4    20    19    1
     5     7     9   ar
     6     7     6   ar
     7     9     1   ar
     8    30    29    1
     9    17    19   ar
    10    17    16   ar
    11    19    21   ar
    12    14    11    2
    13    12    16    1
    14    12    11   am
    15    12    13    1
    16    16    15   ar
    17    11     6    1
    18    44    42    1
    19    26    27    1
    20    26    25    1
    21     6     4   ar
    22    21    22    1
    23    21    23   ar
    24     1     2   ar
    25    15    23   ar
    26    23    24    1
    27    38    35    2
    28    29    25    1
    29    29    31    1
    30    29    32    1
    31     4     2   ar
    32     4     5    1
    33     2     3    1
    34    25    28    2
    35    37    36    1
    36    40    39    1
    37    35    36    1
    38    35    39    1
    39    34    32    1
    40    42    39    1
    41    42    43    1
    42    39    41    1
    43    32    33    1
