@<TRIPOS>MOLECULE
4506727.cif
 15 15 0 0 0
SMALL
GASTEIGER

@<TRIPOS>ATOM
      1 C          -1.0134    9.9192    1.3245 C.2     1  LIG1        0.0174
      2 C           0.1840   10.3939    1.8003 C.2     1  LIG1        0.1184
      3 C           0.2422   11.6747    2.3240 C.3     1  LIG1        0.0358
      4 C          -0.9042   12.4379    2.3901 C.2     1  LIG1       -0.0605
      5 C          -2.0808   11.9104    1.9239 C.2     1  LIG1       -0.0100
      6 H          -1.1069    9.0633    0.9220 H       1  LIG1        0.0798
      7 H           1.0781   12.0386    2.7016 H       1  LIG1        0.0415
      8 H          -0.8769   13.3431    2.7390 H       1  LIG1        0.0591
      9 H          -2.8750   12.3819    1.9757 H       1  LIG1        0.0778
     10 H          -2.8534   10.3678    1.1824 H       1  LIG1        0.1511
     11 N          -2.1023   10.6881    1.4012 N.pl3   1  LIG1       -0.3253
     12 O           1.1255    8.0401    1.3882 O.2     1  LIG1       -0.1400
     13 O           2.1296    9.3713    3.1333 O.3     1  LIG1       -0.0429
     14 O           2.5113    9.9180    0.8195 O.2     1  LIG1       -0.1400
     15 S           1.6156    9.3311    1.8010 S.3     1  LIG1        0.1376
@<TRIPOS>BOND
     1    14    15    2
     2     6     1    1
     3    10    11    1
     4     1    11    1
     5     1     2    2
     6    12    15    2
     7    11     5    1
     8     2    15    1
     9     2     3    1
    10    15    13    1
    11     5     9    1
    12     5     4    2
    13     3     4    1
    14     3     7    1
    15     4     8    1
