@<TRIPOS>MOLECULE
?
 27 26 0 0 0
SMALL
GASTEIGER

@<TRIPOS>ATOM
      1 C           8.7936    5.0807   -5.1322 C.3     1  LIG1        0.0119
      2 O           5.9881    6.9184    1.6821 O.2     2  LIG2       -0.2451
      3 O           7.2347    3.4560   -4.3344 O.2     1  LIG1       -0.2763
      4 O           9.7113    3.5547    2.4984 O.3     2  LIG2       -0.5032
      5 O           8.7208    3.0877   -2.0990 O.3     2  LIG2       -0.5032
      6 O          10.1688    2.3907    0.0724 O.3     2  LIG2       -0.5009
      7 O           5.5580    6.6329   -0.4937 O.3     2  LIG2       -0.4771
      8 C           9.1917    3.3417    0.1633 C.ar    2  LIG2        0.2006
      9 C           7.2290    5.2801    0.4568 C.ar    2  LIG2        0.0660
     10 C           8.9673    3.9300    1.4032 C.ar    2  LIG2        0.1628
     11 C           7.4360    4.6862   -0.7930 C.ar    2  LIG2       -0.0023
     12 C           6.2145    6.3447    0.6186 C.2     2  LIG2        0.3370
     13 N           7.3262    3.7886   -6.5500 N.am    1  LIG1       -0.3295
     14 C           7.9952    4.9044    1.5544 C.ar    2  LIG2       -0.0023
     15 C           8.4173    3.7226   -0.9347 C.ar    2  LIG2        0.1628
     16 C           7.7307    4.0519   -5.3220 C.2     1  LIG1        0.2074
     17 H           7.8630    5.3012    2.4174 H       2  LIG2        0.0663
     18 H           6.9285    4.9365   -1.5759 H       2  LIG2        0.0663
     19 H           7.6806    4.2094   -7.2294 H       1  LIG1        0.1449
     20 H          10.2857    2.2369   -0.7573 H       2  LIG2        0.2924
     21 H          10.2519    2.9254    2.2828 H       2  LIG2        0.2923
     22 H           6.7205    3.1260   -6.7017 H       1  LIG1        0.1449
     23 H           8.9694    5.6512   -5.9227 H       1  LIG1        0.0322
     24 H           8.1835    3.3255   -2.7718 H       2  LIG2        0.2923
     25 H           4.9962    7.4179   -0.3960 H       2  LIG2        0.2954
     26 H           9.6456    4.6388   -4.9397 H       1  LIG1        0.0322
     27 H           8.5860    5.6261   -4.4051 H       1  LIG1        0.0322
@<TRIPOS>BOND
     1    19    13    1
     2    22    13    1
     3    13    16   am
     4    23     1    1
     5    16     1    1
     6    16     3    2
     7     1    26    1
     8     1    27    1
     9    24     5    1
    10     5    15    1
    11    18    11    1
    12    15    11   ar
    13    15     8   ar
    14    11     9   ar
    15    20     6    1
    16     7    25    1
    17     7    12    1
    18     6     8    1
    19     8    10   ar
    20     9    12    1
    21     9    14   ar
    22    12     2    2
    23    10    14   ar
    24    10     4    1
    25    14    17    1
    26    21     4    1
