@<TRIPOS>MOLECULE
?
 38 40 0 0 0
SMALL
GASTEIGER

@<TRIPOS>ATOM
      1 S           0.9795    4.1048    6.4574 S.O2    1  LIG1        0.0724
      2 O           0.5854    6.8758    3.1572 O.3     1  LIG1       -0.4541
      3 O           0.9522    2.7142    6.1159 O.2     1  LIG1       -0.1500
      4 O          -0.0364    4.6341    7.3288 O.2     1  LIG1       -0.1500
      5 N           0.8255    4.9839    5.0884 N.pl3   1  LIG1       -0.2127
      6 C           1.4197    5.7875    2.9042 C.ar    1  LIG1        0.1507
      7 C           3.5523    3.4931    7.1112 C.ar    1  LIG1       -0.0351
      8 H           3.4065    2.6730    6.6549 H       1  LIG1        0.0637
      9 C          -0.7380    6.7872    2.7284 C.ar    1  LIG1        0.1285
     10 C          -1.4469    7.9861    2.7122 C.ar    1  LIG1       -0.0193
     11 H          -1.0220    8.7983    2.9600 H       1  LIG1        0.0654
     12 C           1.5817    4.8172    3.9031 C.ar    1  LIG1        0.0902
     13 C           3.1425    3.6848    2.4566 C.ar    1  LIG1       -0.0597
     14 H           3.7277    2.9546    2.2957 H       1  LIG1        0.0618
     15 C           2.5525    4.4510    7.1731 C.ar    1  LIG1        0.1085
     16 C           2.9961    4.6673    1.4891 C.ar    1  LIG1       -0.0582
     17 H           3.4906    4.6201    0.6792 H       1  LIG1        0.0619
     18 C          -2.6821    5.6096    1.9760 C.ar    1  LIG1       -0.0583
     19 H          -3.1056    4.7998    1.7170 H       1  LIG1        0.0619
     20 C          -3.4023    6.7932    1.9630 C.ar    1  LIG1       -0.0615
     21 H          -4.3169    6.7930    1.7048 H       1  LIG1        0.0618
     22 C          -2.7791    7.9791    2.3297 C.ar    1  LIG1       -0.0583
     23 H          -3.2698    8.7923    2.3175 H       1  LIG1        0.0619
     24 C           2.4478    3.7510    3.6574 C.ar    1  LIG1       -0.0357
     25 H           2.5624    3.0712    4.3103 H       1  LIG1        0.0638
     26 C           2.1184    5.7235    1.7136 C.ar    1  LIG1       -0.0174
     27 H           2.0004    6.3960    1.0528 H       1  LIG1        0.0655
     28 C           3.9783    5.9068    8.4310 C.ar    1  LIG1       -0.0599
     29 H           4.1328    6.7299    8.8800 H       1  LIG1        0.0618
     30 C          -1.3420    5.5944    2.3641 C.ar    1  LIG1       -0.0193
     31 H          -0.8524    4.7803    2.3786 H       1  LIG1        0.0654
     32 C           2.7553    5.6715    7.8234 C.ar    1  LIG1       -0.0351
     33 H           2.0684    6.3268    7.8489 H       1  LIG1        0.0637
     34 C           4.7740    3.7522    7.7278 C.ar    1  LIG1       -0.0599
     35 H           5.4699    3.1064    7.6954 H       1  LIG1        0.0618
     36 C           4.9735    4.9520    8.3870 C.ar    1  LIG1       -0.0616
     37 H           5.8053    5.1202    8.8148 H       1  LIG1        0.0618
     38 H           0.4976    5.7612    5.2639 H       1  LIG1        0.1738
@<TRIPOS>BOND
     1    17    16    1
     2    27    26    1
     3    16    26   ar
     4    16    13   ar
     5    21    20    1
     6    26     6   ar
     7    19    18    1
     8    20    18   ar
     9    20    22   ar
    10    18    30   ar
    11    14    13    1
    12    23    22    1
    13    22    10   ar
    14    30    31    1
    15    30     9   ar
    16    13    24   ar
    17    10     9   ar
    18    10    11    1
    19     9     2    1
    20     6     2    1
    21     6    12   ar
    22    24    12   ar
    23    24    25    1
    24    12     5    1
    25     5    38    1
    26     5     1    1
    27     3     1    2
    28     1    15    1
    29     1     4    2
    30     8     7    1
    31     7    15   ar
    32     7    34   ar
    33    15    32   ar
    34    35    34    1
    35    34    36   ar
    36    32    33    1
    37    32    28   ar
    38    36    28   ar
    39    36    37    1
    40    28    29    1
