@<TRIPOS>MOLECULE
2-amino-4,6-dimethoxypyrimidine-chloroacetic acid
 28 27 0 0 0
SMALL
GASTEIGER

@<TRIPOS>ATOM
      1 CL          0.8520   -0.1849   15.3060 Cl      1  LIG1       -0.1135
      2 N           4.4790    3.3458    9.3550 N.ar    2  LIG2       -0.1795
      3 O           1.0216    1.2895    9.9637 O.3     2  LIG2       -0.4795
      4 O           4.0544    3.4907    7.0982 O.3     2  LIG2       -0.4795
      5 O           2.1188    1.0441   12.9799 O.3     1  LIG1       -0.4798
      6 H           2.4526    1.4131   12.3282 H       1  LIG1        0.2951
      7 O           3.8524    1.9565   14.0499 O.2     1  LIG1       -0.2497
      8 N           4.7976    3.0979   11.6160 N.pl3   2  LIG2       -0.3273
      9 H           4.5504    2.8056   12.3854 H       2  LIG2        0.1452
     10 H           5.5323    3.5380   11.5395 H       2  LIG2        0.1452
     11 N           2.9066    2.1762   10.7345 N.ar    2  LIG2       -0.1795
     12 C           2.4192    0.6262   15.3073 C.3     1  LIG1        0.1195
     13 H           2.4056    1.3077   15.9980 H       1  LIG1        0.0545
     14 H           3.0958   -0.0234   15.5549 H       1  LIG1        0.0545
     15 C           4.0452    2.8706   10.5482 C.ar    2  LIG2        0.2187
     16 C           2.4819    2.4127    8.4044 C.ar    2  LIG2        0.0616
     17 H           1.9468    2.2686    7.6577 H       2  LIG2        0.0724
     18 C           2.1289    1.9678    9.6575 C.ar    2  LIG2        0.2225
     19 C           2.8422    1.2730   14.0183 C.2     1  LIG1        0.3195
     20 C           3.6853    3.0890    8.3295 C.ar    2  LIG2        0.2225
     21 C           5.3189    4.1488    6.9411 C.3     2  LIG2        0.0804
     22 H           6.0188    3.5771    7.2633 H       2  LIG2        0.0660
     23 H           5.3177    4.9676    7.4414 H       2  LIG2        0.0660
     24 H           5.4661    4.3418    6.0125 H       2  LIG2        0.0660
     25 C           0.0727    1.0368    8.9110 C.3     2  LIG2        0.0804
     26 H           0.4956    0.5289    8.2152 H       2  LIG2        0.0660
     27 H          -0.2395    1.8717    8.5545 H       2  LIG2        0.0660
     28 H          -0.6708    0.5414    9.2626 H       2  LIG2        0.0660
@<TRIPOS>BOND
     1    24    21    1
     2    21     4    1
     3    21    22    1
     4    21    23    1
     5     4    20    1
     6    17    16    1
     7    26    25    1
     8    20    16   ar
     9    20     2   ar
    10    16    18   ar
    11    27    25    1
    12    25    28    1
    13    25     3    1
    14     2    15   ar
    15    18     3    1
    16    18    11   ar
    17    15    11   ar
    18    15     8    1
    19    10     8    1
    20     8     9    1
    21     6     5    1
    22     5    19    1
    23    19     7    2
    24    19    12    1
    25     1    12    1
    26    12    14    1
    27    12    13    1
