@<TRIPOS>MOLECULE
1-(5-(anthracen-10-yl)-3-(4-methoxyphenyl)- 4,5-dihydropyrazol-1-yl) ethanone
 52 56 0 0 0
SMALL
GASTEIGER

@<TRIPOS>ATOM
      1 C          -0.7073    4.2210   15.8892 C.2     1  LIG1        0.0688
      2 O          -2.0074    7.2133   12.9626 O.2     1  LIG1       -0.2741
      3 N          -1.5701    5.1735   15.7922 N.2     1  LIG1       -0.1809
      4 N          -1.3357    5.8408   14.5838 N.am    1  LIG1       -0.1853
      5 C          -0.6388    3.3381   17.0551 C.ar    1  LIG1       -0.0020
      6 C           1.3700    7.2241   14.2898 C.ar    1  LIG1       -0.0123
      7 C           1.4797    6.0618   12.1463 C.ar    1  LIG1       -0.0123
      8 C          -0.2193    5.2671   13.8130 C.3     1  LIG1        0.0805
      9 H          -0.5862    4.8711   12.9944 H       1  LIG1        0.0575
     10 C           0.1987    2.2233   17.0357 C.ar    1  LIG1       -0.0494
     11 H           0.7024    2.0411   16.2746 H       1  LIG1        0.0625
     12 C           0.8854    6.2324   13.4162 C.ar    1  LIG1       -0.0093
     13 C          -1.3136    2.7333   19.3049 C.ar    1  LIG1       -0.0193
     14 H          -1.8216    2.9066   20.0641 H       1  LIG1        0.0654
     15 C          -1.3917    3.5655   18.2015 C.ar    1  LIG1       -0.0494
     16 H          -1.9639    4.2977   18.2273 H       1  LIG1        0.0625
     17 O          -0.2806    0.7634   20.2885 O.3     1  LIG1       -0.4951
     18 C           0.2345    4.1278   14.7306 C.3     1  LIG1        0.0164
     19 H           0.1574    3.2689   14.2851 H       1  LIG1        0.0351
     20 H           1.1529    4.2544   15.0156 H       1  LIG1        0.0351
     21 C          -0.4625    1.6333   19.2566 C.ar    1  LIG1        0.1201
     22 C          -2.1929    6.7655   14.0877 C.2     1  LIG1        0.2322
     23 C           0.2909    1.3911   18.1226 C.ar    1  LIG1       -0.0193
     24 H           0.8641    0.6589   18.0973 H       1  LIG1        0.0654
     25 C           2.5088    6.9710   11.7206 C.ar    1  LIG1       -0.0170
     26 C           0.9445    7.3710   15.6514 C.ar    1  LIG1       -0.0537
     27 H           0.3061    6.7855   15.9901 H       1  LIG1        0.0624
     28 C           2.3796    8.1388   13.8373 C.ar    1  LIG1       -0.0170
     29 C           1.1605    4.9911   11.2633 C.ar    1  LIG1       -0.0537
     30 H           0.5124    4.3733   11.5141 H       1  LIG1        0.0624
     31 C           2.7770    5.7666    9.6569 C.ar    1  LIG1       -0.0612
     32 H           3.1971    5.6599    8.8344 H       1  LIG1        0.0618
     33 C           2.8953    8.0133   12.5626 C.ar    1  LIG1       -0.0463
     34 H           3.5141    8.6377   12.2586 H       1  LIG1        0.0630
     35 C           1.4449    8.3399   16.4632 C.ar    1  LIG1       -0.0612
     36 H           1.1475    8.3977   17.3423 H       1  LIG1        0.0618
     37 C           3.1178    6.7833   10.4464 C.ar    1  LIG1       -0.0540
     38 H           3.7681    7.3844   10.1602 H       1  LIG1        0.0624
     39 C           1.7847    4.8511   10.0598 C.ar    1  LIG1       -0.0612
     40 H           1.5535    4.1455    9.5000 H       1  LIG1        0.0618
     41 C           2.3970    9.2466   16.0030 C.ar    1  LIG1       -0.0612
     42 H           2.7227    9.9088   16.5696 H       1  LIG1        0.0618
     43 C          -3.3176    7.2044   14.9734 C.3     1  LIG1        0.0140
     44 H          -3.8647    7.8388   14.5046 H       1  LIG1        0.0323
     45 H          -2.9604    7.6121   15.7654 H       1  LIG1        0.0323
     46 H          -3.8485    6.4422   15.2175 H       1  LIG1        0.0323
     47 C           2.8454    9.1644   14.7328 C.ar    1  LIG1       -0.0540
     48 H           3.4696    9.7832   14.4291 H       1  LIG1        0.0624
     49 C          -1.0400    0.9055   21.4450 C.3     1  LIG1        0.0788
     50 H          -0.7881    0.2300   22.0782 H       1  LIG1        0.0660
     51 H          -1.9715    0.8133   21.2300 H       1  LIG1        0.0660
     52 H          -0.8848    1.7733   21.8253 H       1  LIG1        0.0660
@<TRIPOS>BOND
     1    32    31    1
     2    40    39    1
     3    31    39   ar
     4    31    37   ar
     5    39    29   ar
     6    38    37    1
     7    37    25   ar
     8    29    30    1
     9    29     7   ar
    10    25     7   ar
    11    25    33   ar
    12     7    12   ar
    13    34    33    1
    14    33    28   ar
    15     2    22    2
    16     9     8    1
    17    12     8    1
    18    12     6   ar
    19     8     4    1
    20     8    18    1
    21    28     6   ar
    22    28    47   ar
    23    22     4   am
    24    22    43    1
    25    19    18    1
    26     6    26   ar
    27    48    47    1
    28    44    43    1
    29     4     3    1
    30    18    20    1
    31    18     1    1
    32    47    41   ar
    33    43    46    1
    34    43    45    1
    35    26    27    1
    36    26    35   ar
    37     3     1    2
    38     1     5    1
    39    41    35   ar
    40    41    42    1
    41    11    10    1
    42    35    36    1
    43    10     5   ar
    44    10    23   ar
    45     5    15   ar
    46    24    23    1
    47    23    21   ar
    48    15    16    1
    49    15    13   ar
    50    21    13   ar
    51    21    17    1
    52    13    14    1
    53    17    49    1
    54    51    49    1
    55    49    52    1
    56    49    50    1
