@<TRIPOS>MOLECULE
?
 30 31 0 0 0
SMALL
GASTEIGER

@<TRIPOS>ATOM
      1 C           3.8544    4.7778    9.2624 C.2     1  LIG1        0.0706
      2 C           3.7372    3.7254   11.6089 C.2     1  LIG1       -0.0035
      3 H           3.4389    3.3226   12.3934 H       1  LIG1        0.0709
      4 C           5.0263    4.0372   11.4332 C.2     1  LIG1        0.0580
      5 C           3.5387    5.2835    8.0361 C.2     1  LIG1        0.0717
      6 C           3.6007    6.1910    5.6218 C.2     1  LIG1        0.0662
      7 C           2.8733    7.3044    3.2179 C.3     1  LIG1        0.0082
      8 H           2.5616    8.1435    3.5919 H       1  LIG1        0.0388
      9 H           3.1364    7.4715    2.2995 H       1  LIG1        0.0388
     10 C           1.7339    6.3252    3.2197 C.3     1  LIG1        0.0082
     11 H           2.0671    5.4582    2.9431 H       1  LIG1        0.0388
     12 H           1.0763    6.6106    2.5674 H       1  LIG1        0.0388
     13 C           2.2999    5.9321    5.8740 C.2     1  LIG1        0.0662
     14 C           1.7045    4.7059   -0.7306 C.2     2  LIG2        0.1590
     15 C           2.8698    5.0562   -0.1757 C.2     2  LIG2       -0.0139
     16 H           3.2084    5.9130   -0.3027 H       2  LIG2        0.0654
     17 C           3.5938    4.1084    0.6175 C.2     2  LIG2        0.0146
     18 C           4.8439    4.4587    1.2106 C.2     2  LIG2        0.1359
     19 C           5.3805    5.7337    1.0263 C.1     2  LIG2        0.1108
     20 C           5.6001    3.6128    2.0734 C.1     2  LIG2        0.1108
     21 N           5.8456    6.7756    0.8871 N.1     2  LIG2       -0.1901
     22 N           6.2980    3.0072    2.7570 N.1     2  LIG2       -0.1901
     23 F           1.0460    5.6444   -1.4629 F       2  LIG2       -0.2025
     24 S           5.4762    4.7673    9.9132 S.3     1  LIG1       -0.0736
     25 S           4.7231    5.9411    6.9447 S.3     1  LIG1       -0.0721
     26 S           4.3264    6.7660    4.1450 S.3     1  LIG1       -0.1157
     27 S           0.9201    6.1488    4.8226 S.3     1  LIG1       -0.1157
     28 S           1.8969    5.3039    7.4527 S.3     1  LIG1       -0.0721
     29 S           2.6411    4.1037   10.3134 S.3     1  LIG1       -0.0869
     30 I           6.5389    3.7419   12.8256 I       1  LIG1       -0.0355
@<TRIPOS>BOND
     1    23    14    1
     2    14    15    2
     3    16    15    1
     4    15    17    1
     5    17    18    2
     6    21    19    3
     7    19    18    1
     8    18    20    1
     9    20    22    3
    10     9     7    1
    11    12    10    1
    12    11    10    1
    13     7    10    1
    14     7     8    1
    15     7    26    1
    16    10    27    1
    17    26     6    1
    18    27    13    1
    19     6    13    2
    20     6    25    1
    21    13    28    1
    22    25     5    1
    23    28     5    2
    24     5     1    1
    25     1    24    1
    26     1    29    2
    27    24     4    1
    28    29     2    1
    29     4     2    2
    30     4    30    1
    31     2     3    1
