@<TRIPOS>MOLECULE
1,3,5,7-tetranitro-1,3,5,7-tetraza-cyclooctane - 4-fluoroaniline
 42 42 0 0 0
SMALL
GASTEIGER

@<TRIPOS>ATOM
      1 F           8.6594   -1.1408   -0.3027 F       1  LIG1       -0.2055
      2 O           3.2640    3.1677    5.5390 O.2     2  LIG2       -0.1096
      3 O           3.2786    3.1441    3.3686 O.2     2  LIG2       -0.1096
      4 O           6.0413    3.0336    2.2041 O.2     2  LIG2       -0.1096
      5 O           8.0275    2.1371    2.3172 O.2     2  LIG2       -0.1096
      6 O           9.7612    0.2071    3.4659 O.2     2  LIG2       -0.1096
      7 O           9.7521   -0.0832    5.6133 O.2     2  LIG2       -0.1096
      8 O           8.0906    2.1061    6.4594 O.2     2  LIG2       -0.1096
      9 O           6.1540    3.1177    6.5023 O.2     2  LIG2       -0.1096
     10 N           4.5241    1.6662    4.4787 N.pl3   2  LIG2       -0.1683
     11 N           3.6341    2.7160    4.4616 N.pl3   2  LIG2        0.1238
     12 N           6.2603    0.9701    2.9733 N.pl3   2  LIG2       -0.1683
     13 N           6.8107    2.1108    2.4685 N.pl3   2  LIG2        0.1238
     14 N           7.8165   -0.1127    4.5097 N.pl3   2  LIG2       -0.1683
     15 N           9.1961    0.0207    4.5289 N.pl3   2  LIG2        0.1238
     16 N           6.2461    0.9616    6.0145 N.pl3   2  LIG2       -0.1683
     17 N           6.8655    2.1322    6.3487 N.pl3   2  LIG2        0.1238
     18 N           3.5229    0.8632    0.1075 N.pl3   1  LIG1       -0.3580
     19 C           4.8298    0.9751    3.2371 C.3     2  LIG2        0.1226
     20 C           7.1292   -0.1718    3.2323 C.3     2  LIG2        0.1226
     21 C           7.0883   -0.2011    5.7607 C.3     2  LIG2        0.1226
     22 C           4.8184    1.0190    5.7559 C.3     2  LIG2        0.1226
     23 C           4.8045    0.3441   -0.0478 C.ar    1  LIG1        0.0247
     24 C           5.0923   -0.9706    0.3415 C.ar    1  LIG1       -0.0383
     25 C           6.3785   -1.4739    0.2529 C.ar    1  LIG1       -0.0247
     26 C           7.3815   -0.6516   -0.2147 C.ar    1  LIG1        0.1235
     27 C           7.1431    0.6510   -0.6129 C.ar    1  LIG1       -0.0247
     28 C           5.8531    1.1424   -0.5200 C.ar    1  LIG1       -0.0383
     29 H           2.9165    0.3106    0.1854 H       1  LIG1        0.1423
     30 H           4.5908    0.0527    3.2981 H       2  LIG2        0.0705
     31 H           4.3747    1.3319    2.5009 H       2  LIG2        0.0705
     32 H           3.2637    1.4687   -0.4301 H       1  LIG1        0.1423
     33 H           6.5351   -0.9518    3.2573 H       2  LIG2        0.0705
     34 H           7.7773   -0.2209    2.5454 H       2  LIG2        0.0705
     35 H           7.7233   -0.2780    6.4665 H       2  LIG2        0.0705
     36 H           6.5120   -0.9653    5.7082 H       2  LIG2        0.0705
     37 H           4.3593    1.4721    6.4850 H       2  LIG2        0.0705
     38 H           4.5445    0.1256    5.7212 H       2  LIG2        0.0705
     39 H           4.4442   -1.5023    0.6637 H       1  LIG1        0.0637
     40 H           6.5583   -2.3791    0.5265 H       1  LIG1        0.0647
     41 H           7.8236    1.1806   -0.9418 H       1  LIG1        0.0647
     42 H           5.6787    2.0640   -0.7694 H       1  LIG1        0.0637
@<TRIPOS>BOND
     1    41    27    1
     2    42    28    1
     3    27    28   ar
     4    27    26   ar
     5    28    23   ar
     6    32    18    1
     7     1    26    1
     8    26    25   ar
     9    23    18    1
    10    23    24   ar
    11    18    29    1
    12    25    24   ar
    13    25    40    1
    14    24    39    1
    15     4    13    2
    16     5    13    2
    17    13    12    1
    18    31    19    1
    19    34    20    1
    20    12    20    1
    21    12    19    1
    22    20    33    1
    23    20    14    1
    24    19    30    1
    25    19    10    1
    26     3    11    2
    27     6    15    2
    28    11    10    1
    29    11     2    2
    30    10    22    1
    31    14    15    1
    32    14    21    1
    33    15     7    2
    34    36    21    1
    35    38    22    1
    36    22    16    1
    37    22    37    1
    38    21    16    1
    39    21    35    1
    40    16    17    1
    41    17     8    2
    42    17     9    2
