@<TRIPOS>MOLECULE
2-amino-4,6-dimethoxypyrimidine-4-nitrobenzoic acid
 37 37 0 0 0
SMALL
GASTEIGER

@<TRIPOS>ATOM
      1 N           3.8921    2.6317   12.2820 N.ar    1  LIG1       -0.1795
      2 O           6.6649    2.1425   15.1758 O.3     1  LIG1       -0.4795
      3 O           2.0230    2.7201   10.4151 O.3     2  LIG2       -0.4771
      4 H           2.5572    2.7767   11.0347 H       2  LIG2        0.2954
      5 O           4.2710    0.6399   11.3946 O.3     1  LIG1       -0.4795
      6 O           1.5864    4.8423   10.9517 O.2     2  LIG2       -0.2451
      7 N           5.0986    3.4905   14.1570 N.ar    1  LIG1       -0.1795
      8 C           0.3665    3.8381    9.1934 C.ar    2  LIG2        0.0590
      9 C           5.7540    2.3429   14.1994 C.ar    1  LIG1        0.2225
     10 C          -1.4650    3.8946    7.1680 C.ar    2  LIG2        0.1262
     11 C           5.5705    1.2973   13.3197 C.ar    1  LIG1        0.0616
     12 H           6.0606    0.5091   13.3715 H       1  LIG1        0.0724
     13 C           4.6129    1.5052   12.3604 C.ar    1  LIG1        0.2225
     14 C           4.1730    3.5846   13.1795 C.ar    1  LIG1        0.2187
     15 C           1.3903    3.8464   10.2849 C.2     2  LIG2        0.3368
     16 N           3.4793    4.7112   13.1037 N.pl3   1  LIG1       -0.3273
     17 H           2.8784    4.8055   12.4966 H       1  LIG1        0.1452
     18 H           3.6301    5.3475   13.6622 H       1  LIG1        0.1452
     19 C          -1.2455    5.0376    7.8896 C.ar    2  LIG2       -0.0307
     20 H          -1.7064    5.8216    7.6946 H       2  LIG2        0.0640
     21 C          -0.8095    2.7208    7.4333 C.ar    2  LIG2       -0.0307
     22 H          -0.9856    1.9555    6.9337 H       2  LIG2        0.0640
     23 C          -0.3260    4.9977    8.9124 C.ar    2  LIG2       -0.0456
     24 H          -0.1696    5.7614    9.4188 H       2  LIG2        0.0626
     25 N          -2.4492    3.9208    6.0711 N.pl3   2  LIG2        0.0564
     26 O          -2.6428    2.9070    5.4418 O.2     2  LIG2       -0.1261
     27 O          -3.0351    4.9621    5.8573 O.2     2  LIG2       -0.1261
     28 C           0.1176    2.6956    8.4550 C.ar    2  LIG2       -0.0456
     29 H           0.5756    1.9095    8.6465 H       2  LIG2        0.0626
     30 C           5.0756   -0.5321   11.2430 C.3     1  LIG1        0.0804
     31 H           5.9878   -0.2759   11.0860 H       1  LIG1        0.0660
     32 H           4.7553   -1.0456   10.4989 H       1  LIG1        0.0660
     33 H           5.0249   -1.0610   12.0435 H       1  LIG1        0.0660
     34 C           6.8519    3.1873   16.1473 C.3     1  LIG1        0.0804
     35 H           7.3014    3.9296   15.7369 H       1  LIG1        0.0660
     36 H           7.3823    2.8555   16.8769 H       1  LIG1        0.0660
     37 H           5.9974    3.4730   16.4779 H       1  LIG1        0.0660
@<TRIPOS>BOND
     1    26    25    2
     2    27    25    2
     3    25    10    1
     4    22    21    1
     5    10    21   ar
     6    10    19   ar
     7    21    28   ar
     8    20    19    1
     9    19    23   ar
    10    28    29    1
    11    28     8   ar
    12    23     8   ar
    13    23    24    1
    14     8    15    1
    15    15     3    1
    16    15     6    2
    17     3     4    1
    18    32    30    1
    19    31    30    1
    20    30     5    1
    21    30    33    1
    22     5    13    1
    23     1    13   ar
    24     1    14   ar
    25    13    11   ar
    26    17    16    1
    27    16    14    1
    28    16    18    1
    29    14     7   ar
    30    11    12    1
    31    11     9   ar
    32     7     9   ar
    33     9     2    1
    34     2    34    1
    35    35    34    1
    36    34    37    1
    37    34    36    1
