@<TRIPOS>MOLECULE
?
 55 57 0 0 0
SMALL
GASTEIGER

@<TRIPOS>ATOM
      1 S           0.2251    1.9951    6.8345 S.O2    1  LIG1        0.0724
      2 O           0.3966    3.1953    6.0808 O.2     1  LIG1       -0.1500
      3 O          -0.0977    2.0586    8.2369 O.2     1  LIG1       -0.1500
      4 O          -1.4135   -0.0519    0.7478 O.3     1  LIG1       -0.4951
      5 N          -1.0010    1.1441    6.1803 N.pl3   1  LIG1       -0.2163
      6 C           2.7833    1.5813    6.0444 C.ar    1  LIG1       -0.0274
      7 H           2.7158    2.4340    5.6320 H       1  LIG1        0.0643
      8 C           1.7015    1.0484    6.6917 C.ar    1  LIG1        0.1091
      9 C           1.7595   -0.2315    7.3003 C.ar    1  LIG1       -0.0345
     10 H           0.9973   -0.5909    7.7391 H       1  LIG1        0.0637
     11 C          -1.0380    0.8762    4.7691 C.ar    1  LIG1        0.0483
     12 C           5.3076   -1.1194    6.5563 C.ar    1  LIG1       -0.0540
     13 H           5.3731   -1.9795    6.9530 H       1  LIG1        0.0624
     14 C           4.0783   -0.4143    6.6040 C.ar    1  LIG1       -0.0178
     15 C           4.0028    0.8650    5.9909 C.ar    1  LIG1       -0.0160
     16 C          -1.3720    1.8857    3.8805 C.ar    1  LIG1       -0.0359
     17 H          -1.5250    2.7662    4.2014 H       1  LIG1        0.0638
     18 C           2.9252   -0.9416    7.2471 C.ar    1  LIG1       -0.0522
     19 H           2.9666   -1.8023    7.6457 H       1  LIG1        0.0624
     20 C           6.3206    0.6909    5.3388 C.ar    1  LIG1       -0.0612
     21 H           7.0852    1.0565    4.9102 H       1  LIG1        0.0618
     22 C          -1.4846    1.6165    2.5205 C.ar    1  LIG1       -0.0182
     23 H          -1.6983    2.3154    1.9138 H       1  LIG1        0.0655
     24 C          -0.9393   -0.6792    2.9507 C.ar    1  LIG1       -0.0182
     25 H          -0.7956   -1.5628    2.6323 H       1  LIG1        0.0655
     26 C           5.1501    1.4059    5.3591 C.ar    1  LIG1       -0.0540
     27 H           5.1080    2.2630    4.9489 H       1  LIG1        0.0624
     28 C           6.4036   -0.5711    5.9432 C.ar    1  LIG1       -0.0612
     29 H           7.2241   -1.0490    5.9284 H       1  LIG1        0.0618
     30 C           4.1202    4.6062    3.1630 C.ar    2  LIG2       -0.0586
     31 H           4.4336    5.4373    3.5023 H       2  LIG2        0.0620
     32 C           4.5358    2.5513    1.9947 C.ar    2  LIG2       -0.0475
     33 C          -1.2855    0.3303    2.0540 C.ar    1  LIG1        0.1202
     34 C          -0.8034   -0.4069    4.2965 C.ar    1  LIG1       -0.0359
     35 H          -0.5497   -1.0972    4.8974 H       1  LIG1        0.0638
     36 C          -1.6354    0.9793   -0.2168 C.3     1  LIG1        0.0788
     37 H          -2.5068    1.3973   -0.0548 H       1  LIG1        0.0660
     38 H          -1.6208    0.5934   -1.1180 H       1  LIG1        0.0660
     39 H          -0.9294    1.6554   -0.1385 H       1  LIG1        0.0660
     40 C           6.4672    4.1468    2.3987 C.3     2  LIG2       -0.0395
     41 H           7.0068    3.5207    2.9255 H       2  LIG2        0.0278
     42 H           6.5972    5.0563    2.7387 H       2  LIG2        0.0278
     43 H           6.7461    4.1079    1.4595 H       2  LIG2        0.0278
     44 C           2.7973    4.2715    3.3402 C.ar    2  LIG2       -0.0615
     45 H           2.2130    4.8581    3.8051 H       2  LIG2        0.0618
     46 C           5.0093    3.7708    2.5073 C.ar    2  LIG2       -0.0475
     47 C           2.3282    3.0792    2.8366 C.ar    2  LIG2       -0.0615
     48 H           1.4165    2.8353    2.9513 H       2  LIG2        0.0618
     49 C           3.2023    2.2339    2.1597 C.ar    2  LIG2       -0.0586
     50 H           2.8737    1.4177    1.8011 H       2  LIG2        0.0620
     51 C           5.4847    1.5893    1.3123 C.3     2  LIG2       -0.0395
     52 H           4.9842    0.8082    0.9956 H       2  LIG2        0.0278
     53 H           6.1709    1.3010    1.9493 H       2  LIG2        0.0278
     54 H           5.9112    2.0357    0.5510 H       2  LIG2        0.0278
     55 H          -1.2438    0.5001    6.6984 H       1  LIG1        0.1737
@<TRIPOS>BOND
     1    38    36    1
     2    36    39    1
     3    36    37    1
     4    36     4    1
     5    54    51    1
     6     4    33    1
     7    52    51    1
     8    51    53    1
     9    51    32    1
    10    43    40    1
    11    50    49    1
    12    23    22    1
    13    32    49   ar
    14    32    46   ar
    15    33    22   ar
    16    33    24   ar
    17    49    47   ar
    18    40    46    1
    19    40    42    1
    20    40    41    1
    21    46    30   ar
    22    22    16   ar
    23    25    24    1
    24    47    48    1
    25    47    44   ar
    26    24    34   ar
    27    30    44   ar
    28    30    31    1
    29    44    45    1
    30    16    17    1
    31    16    11   ar
    32    34    11   ar
    33    34    35    1
    34    11     5    1
    35    21    20    1
    36    27    26    1
    37    20    26   ar
    38    20    28   ar
    39    26    15   ar
    40     7     6    1
    41    29    28    1
    42    28    12   ar
    43    15     6   ar
    44    15    14   ar
    45     6     8   ar
    46     2     1    2
    47     5    55    1
    48     5     1    1
    49    12    14   ar
    50    12    13    1
    51    14    18   ar
    52     8     1    1
    53     8     9   ar
    54     1     3    2
    55    18     9   ar
    56    18    19    1
    57     9    10    1
