@<TRIPOS>MOLECULE
2-amino-3-nitropyridinium 2,5-dihydroxybenzoate hemihydrate
 67 66 0 0 0
SMALL
GASTEIGER

@<TRIPOS>ATOM
      1 H           3.3448   -2.7515    5.6832 H       1  LIG1        0.2882
      2 H           4.1802   -3.0081    3.6662 H       1  LIG1        0.2976
      3 H           4.4489    8.1457    0.1560 H       2  LIG2        0.2882
      4 H           2.2711    3.9804   -2.3067 H       3  LIG3        0.2921
      5 H           4.6960    6.6633   -0.3232 H       2  LIG2        0.2882
      6 H           3.3842    8.7208    2.0393 H       2  LIG2        0.2976
      7 H           3.0107   -1.3824    6.3964 H       1  LIG1        0.2882
      8 H           6.7238    5.7266    2.6745 H       4  LIG4        0.2922
      9 H           5.8366    1.9468    7.3325 H       4  LIG4        0.2921
     10 H           0.7976    0.1442    2.5630 H       3  LIG3        0.2922
     11 O           6.1054    6.7944    3.7176 O.co2   4  LIG4       -0.2405
     12 O           5.4789    6.5670    5.8307 O.co2   4  LIG4       -0.2405
     13 O           6.9890    4.9011    2.3696 O.3     4  LIG4       -0.5059
     14 C           6.2283    4.6274    4.6435 C.ar    4  LIG4        0.1078
     15 C           6.7706    4.1056    3.4679 C.ar    4  LIG4        0.1312
     16 O           6.0754    1.5454    6.6460 O.3     4  LIG4       -0.5067
     17 C           5.9084    6.0859    4.7728 C.2     4  LIG4        0.3902
     18 C           6.3197    2.4305    5.6253 C.ar    4  LIG4        0.1179
     19 C           6.0004    3.7648    5.7089 C.ar    4  LIG4       -0.0025
     20 H           5.6240    4.0963    6.4923 H       4  LIG4        0.0663
     21 C           7.1048    2.7680    3.3921 C.ar    4  LIG4       -0.0159
     22 H           7.4787    2.4285    2.6121 H       4  LIG4        0.0655
     23 C           6.8894    1.9338    4.4664 C.ar    4  LIG4       -0.0167
     24 H           7.1270    1.0371    4.4129 H       4  LIG4        0.0655
     25 N           3.1829    1.0886    5.2687 N.pl3   1  LIG1        0.0606
     26 N           3.3011   -1.8767    5.6621 N.pl3   1  LIG1       -0.2496
     27 N           4.2057   -2.0202    3.5704 N.pl3   1  LIG1       -0.2106
     28 O           2.7964    0.6701    6.3568 O.2     1  LIG1       -0.1262
     29 C           3.7217    0.1426    4.3137 C.2     1  LIG1        0.1950
     30 C           4.2311    0.6381    3.1414 C.3     1  LIG1        0.0474
     31 H           4.2227    1.5558    2.9898 H       1  LIG1        0.0421
     32 C           3.7208   -1.2544    4.5789 C.2     1  LIG1        0.2849
     33 O           3.1207    2.2646    4.9581 O.2     1  LIG1       -0.1262
     34 C           4.7164   -1.5387    2.4293 C.2     1  LIG1        0.0784
     35 H           5.0495   -2.1284    1.7919 H       1  LIG1        0.1056
     36 C           4.7541   -0.1998    2.1886 C.2     1  LIG1       -0.0367
     37 H           5.1239    0.1374    1.4041 H       1  LIG1        0.0613
     38 N           4.4180    7.2325    0.2964 N.pl3   2  LIG2       -0.2496
     39 N           4.2690    4.3173    0.8369 N.pl3   2  LIG2        0.0606
     40 N           3.3143    7.6141    2.2467 N.pl3   2  LIG2       -0.2106
     41 O           4.5965    4.6189   -0.3059 O.2     2  LIG2       -0.1262
     42 C           3.7306    5.3501    1.7039 C.2     2  LIG2        0.1950
     43 C           3.8417    6.7264    1.3617 C.2     2  LIG2        0.2849
     44 C           2.7023    7.2267    3.3643 C.2     2  LIG2        0.0784
     45 H           2.3561    7.8743    3.9348 H       2  LIG2        0.1056
     46 C           3.0968    4.9639    2.8561 C.3     2  LIG2        0.0474
     47 H           3.0285    4.0611    3.0689 H       2  LIG2        0.0421
     48 C           2.5637    5.9108    3.6997 C.2     2  LIG2       -0.0367
     49 H           2.1199    5.6613    4.4775 H       2  LIG2        0.0613
     50 O           4.3565    3.1782    1.2693 O.2     2  LIG2       -0.1262
     51 C           1.6024    0.6962    0.4368 C.ar    3  LIG3        0.1078
     52 O           2.4339   -1.4381   -0.1434 O.co2   3  LIG3       -0.2405
     53 O           1.3891   -1.2256    1.8094 O.co2   3  LIG3       -0.2405
     54 O           0.5824    1.0808    2.6023 O.3     3  LIG3       -0.5059
     55 C           2.0047    1.2451   -0.7767 C.ar    3  LIG3       -0.0025
     56 H           2.3962    0.6942   -1.4164 H       3  LIG3        0.0663
     57 C           1.0080    1.5386    1.3851 C.ar    3  LIG3        0.1312
     58 O           2.2502    3.0483   -2.2796 O.3     3  LIG3       -0.5067
     59 C           0.8323    2.8786    1.0965 C.ar    3  LIG3       -0.0159
     60 H           0.4300    3.4363    1.7228 H       3  LIG3        0.0655
     61 C           1.8299   -0.7510    0.6831 C.2     3  LIG3        0.3902
     62 C           1.8382    2.5749   -1.0520 C.ar    3  LIG3        0.1179
     63 C           1.2490    3.3968   -0.1092 C.ar    3  LIG3       -0.0167
     64 H           1.1336    4.3007   -0.2897 H       3  LIG3        0.0655
     65 O           5.6015    5.7501    8.5583 O.3     5  HOH5       -0.4105
     66 H           6.3784    6.0409    8.8034 H       0  HOH0        0.2052
     67 H           5.5182    6.0262    7.6891 H       0  HOH0        0.2052
@<TRIPOS>BOND
     1     4    58    1
     2    58    62    1
     3    56    55    1
     4    62    55   ar
     5    62    63   ar
     6    55    51   ar
     7     5    38    1
     8    41    39    2
     9    64    63    1
    10    52    61   ar
    11    63    59   ar
    12     3    38    1
    13    38    43    1
    14    51    61    1
    15    51    57   ar
    16    61    53   ar
    17    39    50    2
    18    39    42    1
    19    59    57   ar
    20    59    60    1
    21    43    42    2
    22    43    40    1
    23    57    54    1
    24    37    36    1
    25    42    46    1
    26    35    34    1
    27     6    40    1
    28    36    34    2
    29    36    30    1
    30    40    44    1
    31    13     8    1
    32    13    15    1
    33    34    27    1
    34    10    54    1
    35    22    21    1
    36    46    47    1
    37    46    48    1
    38    31    30    1
    39    30    29    1
    40    44    48    2
    41    44    45    1
    42    21    15   ar
    43    21    23   ar
    44    15    14   ar
    45    27     2    1
    46    27    32    1
    47    48    49    1
    48    11    17   ar
    49    29    32    2
    50    29    25    1
    51    24    23    1
    52    23    18   ar
    53    32    26    1
    54    14    17    1
    55    14    19   ar
    56    17    12   ar
    57    33    25    2
    58    25    28    2
    59    18    19   ar
    60    18    16    1
    61    26     1    1
    62    26     7    1
    63    19    20    1
    64    16     9    1
    65    67    65    1
    66    65    66    1
