@<TRIPOS>MOLECULE
3,5-dimethylpyridinium 2,5-dihydroxybenzoate
 34 34 0 0 0
SMALL
GASTEIGER

@<TRIPOS>ATOM
      1 O           3.5290    1.1878    3.1259 O.3     1  LIG1       -0.5059
      2 O           3.9875    3.2810    1.7514 O.co2   1  LIG1       -0.2405
      3 O           1.7820    4.5208    7.1819 O.3     1  LIG1       -0.5067
      4 O           3.6742    5.2838    2.6469 O.co2   1  LIG1       -0.2405
      5 C           2.6980    4.2156    5.0208 C.ar    1  LIG1       -0.0025
      6 H           2.7187    5.1405    4.9260 H       1  LIG1        0.0663
      7 N          -1.0971    4.5511    5.1397 N.pl3   2  LIG2       -0.3264
      8 C           2.2267    3.6715    6.1960 C.ar    1  LIG1        0.1179
      9 C           3.1085    2.0237    4.1237 C.ar    1  LIG1        0.1312
     10 C          -0.6257    2.0482    4.2948 C.3     2  LIG2        0.0138
     11 H          -0.4622    1.1811    4.0027 H       2  LIG2        0.0400
     12 C           2.6332    1.4770    5.3077 C.ar    1  LIG1       -0.0159
     13 H           2.6068    0.5533    5.4101 H       1  LIG1        0.0655
     14 C           2.1999    2.2886    6.3305 C.ar    1  LIG1       -0.0167
     15 H           1.8867    1.9075    7.1193 H       1  LIG1        0.0655
     16 C           3.1445    3.4148    3.9705 C.ar    1  LIG1        0.1078
     17 C           3.6299    4.0481    2.7021 C.2     1  LIG1        0.3902
     18 C          -1.0932    2.2383    5.5842 C.2     2  LIG2       -0.0509
     19 C          -0.3935    3.0965    3.4259 C.2     2  LIG2       -0.0509
     20 C           0.1325    2.8858    2.0320 C.3     2  LIG2       -0.0417
     21 H           0.9960    2.4680    2.0753 H       2  LIG2        0.0275
     22 H           0.2080    3.7333    1.5875 H       2  LIG2        0.0275
     23 H          -0.4717    2.3213    1.5441 H       2  LIG2        0.0275
     24 C          -0.6437    4.3616    3.8943 C.2     2  LIG2       -0.0072
     25 H          -0.4961    5.0948    3.3415 H       2  LIG2        0.0781
     26 C          -1.3284    1.0928    6.5314 C.3     2  LIG2       -0.0417
     27 H          -0.9431    1.2989    7.3860 H       2  LIG2        0.0275
     28 H          -0.9193    0.2983    6.1803 H       2  LIG2        0.0275
     29 H          -2.2718    0.9502    6.6315 H       2  LIG2        0.0275
     30 C          -1.3199    3.5348    5.9778 C.2     2  LIG2       -0.0072
     31 H          -1.6315    3.7068    6.8369 H       2  LIG2        0.0781
     32 H           3.8622    1.7416    2.4727 H       1  LIG1        0.2922
     33 H          -1.3568    5.4748    5.4460 H       2  LIG2        0.1511
     34 H           1.2901    3.9570    7.8514 H       1  LIG1        0.2921
@<TRIPOS>BOND
     1    23    20    1
     2    22    20    1
     3     2    17   ar
     4    20    21    1
     5    20    19    1
     6    32     1    1
     7     4    17   ar
     8    17    16    1
     9     1     9    1
    10    25    24    1
    11    19    24    2
    12    19    10    1
    13    24     7    1
    14    16     9   ar
    15    16     5   ar
    16    11    10    1
    17     9    12   ar
    18    10    18    1
    19     6     5    1
    20     5     8   ar
    21     7    33    1
    22     7    30    1
    23    12    13    1
    24    12    14   ar
    25    18    30    2
    26    18    26    1
    27    30    31    1
    28    28    26    1
    29     8    14   ar
    30     8     3    1
    31    14    15    1
    32    26    29    1
    33    26    27    1
    34     3    34    1
