@<TRIPOS>MOLECULE
?
 41 42 0 0 0
SMALL
GASTEIGER

@<TRIPOS>ATOM
      1 S           5.6059    7.5495    7.8869 S.O2    1  LIG1        0.0632
      2 S           9.7897    7.8069    7.9163 S.2     1  LIG1       -0.0917
      3 O           4.8067    9.9524   11.2543 O.2     1  LIG1       -0.2727
      4 O           8.7075    8.5116   10.6676 O.2     1  LIG1       -0.2888
      5 O           4.8326    7.7902    6.7094 O.2     1  LIG1       -0.1528
      6 N           5.5392    8.8770    8.8436 N.3     1  LIG1       -0.1542
      7 N           6.8860    9.6866   12.1516 N.am    1  LIG1       -0.2684
      8 C           5.9836    9.5582   11.1457 C.2     1  LIG1        0.2509
      9 C           7.7950    8.4821    9.7661 C.2     1  LIG1        0.2051
     10 N           7.7761    9.8967   14.2334 N.ar    1  LIG1       -0.2401
     11 N          11.1200    8.0452   11.5539 N.4     1  LIG1        0.2345
     12 O           5.2897    6.4042    8.6857 O.2     1  LIG1       -0.1528
     13 C           8.1610    7.9425    8.4448 C.ar    1  LIG1        0.0834
     14 C           6.4916    8.9195    9.9410 C.3     1  LIG1        0.2162
     15 C           7.2980    7.4969    7.4843 C.ar    1  LIG1        0.1231
     16 C           6.7349   10.2033   13.4408 C.ar    1  LIG1        0.1249
     17 C          10.8845    8.1807   13.0186 C.3     1  LIG1        0.0076
     18 C           5.3646   10.1615    8.1277 C.3     1  LIG1        0.0107
     19 C           7.9560    7.0411    6.3014 C.ar    1  LIG1       -0.0276
     20 C           5.6529   10.9575   13.8732 C.ar    1  LIG1       -0.0215
     21 C           5.6583   11.4073   15.1731 C.ar    1  LIG1       -0.0571
     22 C          11.5187    6.6733   11.1811 C.3     1  LIG1        0.0076
     23 C           9.2962    7.1674    6.4188 C.ar    1  LIG1       -0.0217
     24 C           6.6997   11.0900   16.0045 C.ar    1  LIG1       -0.0435
     25 C           7.7245   10.3407   15.4952 C.ar    1  LIG1        0.0297
     26 H           5.1864   10.8312    8.7544 H       1  LIG1        0.0408
     27 H           6.1548   10.4232    7.6896 H       1  LIG1        0.0408
     28 H          10.1697    7.6177   13.2283 H       1  LIG1        0.0867
     29 H          10.7175    6.0650   11.3071 H       1  LIG1        0.0867
     30 H           7.6105    9.3855   12.0212 H       1  LIG1        0.1563
     31 H           9.9493    6.9024    5.7659 H       1  LIG1        0.0694
     32 H          11.7611    8.7105   11.2722 H       1  LIG1        0.2018
     33 H           4.5710   10.1077    7.5273 H       1  LIG1        0.0408
     34 H           4.9497   11.1837   13.2957 H       1  LIG1        0.0652
     35 H          10.7242    9.0794   13.1796 H       1  LIG1        0.0867
     36 H          10.2832    8.2587   11.1349 H       1  LIG1        0.2018
     37 H           6.7119   11.4124   16.8396 H       1  LIG1        0.0633
     38 H           7.4923    6.6756    5.5550 H       1  LIG1        0.0642
     39 H          11.6685    6.6311   10.2548 H       1  LIG1        0.0867
     40 H           4.9280   11.9459   15.4790 H       1  LIG1        0.0619
     41 H           8.4329   10.0586   16.0532 H       1  LIG1        0.0830
@<TRIPOS>BOND
     1    38    19    1
     2    31    23    1
     3    19    23   ar
     4    19    15   ar
     5    23     2   ar
     6     5     1    2
     7    15     1    1
     8    15    13   ar
     9    33    18    1
    10    27    18    1
    11     1    12    2
    12     1     6    1
    13     2    13   ar
    14    18    26    1
    15    18     6    1
    16    13     9    1
    17     6    14    1
    18     9    14    1
    19     9     4    2
    20    14     8    1
    21    39    22    1
    22    36    11    1
    23     8     3    2
    24     8     7   am
    25    22    29    1
    26    22    11    1
    27    32    11    1
    28    11    17    1
    29    30     7    1
    30     7    16    1
    31    17    35    1
    32    17    28    1
    33    34    20    1
    34    16    20   ar
    35    16    10   ar
    36    20    21   ar
    37    10    25   ar
    38    21    40    1
    39    21    24   ar
    40    25    24   ar
    41    25    41    1
    42    24    37    1
