@<TRIPOS>MOLECULE
?
 108 108 0 0 0
SMALL
GASTEIGER

@<TRIPOS>ATOM
      1 C           5.9781    2.7420   12.9256 C.3     0  UNK0        0.0788
      2 C           4.1870    3.0715   11.3395 C.ar    0  UNK0        0.1207
      3 C           2.8656    2.7193   10.9776 C.ar    0  UNK0       -0.0194
      4 H           2.3830    2.1254   11.5075 H       0  UNK0        0.0654
      5 C           2.2941    3.2467    9.8570 C.ar    0  UNK0       -0.0506
      6 H           1.4204    3.0152    9.6373 H       0  UNK0        0.0625
      7 C           3.0107    4.1449    9.0176 C.ar    0  UNK0       -0.0174
      8 C           4.3418    4.4947    9.3945 C.ar    0  UNK0       -0.0144
      9 C           4.9093    3.9602   10.5803 C.ar    0  UNK0       -0.0122
     10 H           5.7660    4.2102   10.8424 H       0  UNK0        0.0660
     11 C           5.0407    5.4002    8.5518 C.ar    0  UNK0       -0.0536
     12 H           5.9028    5.6643    8.7790 H       0  UNK0        0.0624
     13 C           4.4661    5.8908    7.4125 C.ar    0  UNK0       -0.0573
     14 H           4.9474    6.4818    6.8802 H       0  UNK0        0.0621
     15 C           3.1534    5.5186    7.0234 C.ar    0  UNK0       -0.0352
     16 C           2.4529    4.6630    7.8305 C.ar    0  UNK0       -0.0501
     17 H           1.5883    4.4176    7.5900 H       0  UNK0        0.0627
     18 C           2.5961    6.0918    5.7216 C.3     0  UNK0        0.0577
     19 H           2.9323    7.0063    5.6197 H       0  UNK0        0.0440
     20 C           1.0613    6.1346    5.6763 C.3     0  UNK0       -0.0500
     21 H           0.7167    5.2385    5.6554 H       0  UNK0        0.0240
     22 H           0.7769    6.6050    4.8884 H       0  UNK0        0.0240
     23 H           0.7304    6.5864    6.4564 H       0  UNK0        0.0240
     24 C           3.0917    5.2599    4.5308 C.2     0  UNK0        0.2202
     25 C           4.5517    5.1963    2.5604 C.3     0  UNK0        0.0199
     26 H           4.5668    5.8527    1.8452 H       0  UNK0        0.0467
     27 H           3.9467    4.4853    2.2976 H       0  UNK0        0.0467
     28 C           5.9451    4.6219    2.7340 C.3     0  UNK0        0.0395
     29 H           5.9668    4.0481    3.5152 H       0  UNK0        0.0374
     30 H           6.5810    5.3414    2.8697 H       0  UNK0        0.0374
     31 C           6.3311    3.8219    1.4991 C.2     0  UNK0        0.2151
     32 CA          7.7296    3.6726   -0.4754 C.3     1  ALA1        0.1174
     33 HA          7.7816    2.7039   -0.3379 H       1  ALA1        0.0611
     34 CB          9.1030    4.1595   -0.9323 C.3     1  ALA1       -0.0362
     35 HB1         9.0775    5.1098   -1.0656 H       1  ALA1        0.0253
     36 HB2         9.3372    3.7269   -1.7558 H       1  ALA1        0.0253
     37 HB3         9.7565    3.9472   -0.2628 H       1  ALA1        0.0253
     38 C           6.7062    3.9384   -1.5716 C.2     1  ALA1        0.3250
     39 C           3.3105   -2.2056   12.6962 C.3     0  UNK0        0.0788
     40 C           1.5120   -1.1506   11.4889 C.ar    0  UNK0        0.1207
     41 C           0.1664   -0.6823   11.5771 C.ar    0  UNK0       -0.0194
     42 H          -0.3416   -0.8681   12.3336 H       0  UNK0        0.0654
     43 C          -0.3744    0.0381   10.5509 C.ar    0  UNK0       -0.0506
     44 H          -1.2549    0.3323   10.6082 H       0  UNK0        0.0625
     45 C           0.3890    0.3405    9.4041 C.ar    0  UNK0       -0.0174
     46 C           1.7342   -0.0947    9.3292 C.ar    0  UNK0       -0.0144
     47 C           2.2907   -0.8674   10.4131 C.ar    0  UNK0       -0.0122
     48 H           3.1702   -1.1666   10.3757 H       0  UNK0        0.0660
     49 C           2.5049    0.2443    8.1981 C.ar    0  UNK0       -0.0536
     50 H           3.3981   -0.0109    8.1532 H       0  UNK0        0.0624
     51 C           1.9436    0.9487    7.1650 C.ar    0  UNK0       -0.0573
     52 H           2.4703    1.1717    6.4332 H       0  UNK0        0.0621
     53 C           0.5732    1.3483    7.1802 C.ar    0  UNK0       -0.0352
     54 C          -0.1658    1.0577    8.2950 C.ar    0  UNK0       -0.0501
     55 H          -1.0532    1.3333    8.3338 H       0  UNK0        0.0627
     56 C           0.0244    2.0518    5.9429 C.3     0  UNK0        0.0577
     57 H           0.5033    2.8995    5.8306 H       0  UNK0        0.0440
     58 C          -1.4717    2.3481    6.0137 C.3     0  UNK0       -0.0500
     59 H          -1.9557    1.5271    6.1257 H       0  UNK0        0.0240
     60 H          -1.7518    2.7762    5.2013 H       0  UNK0        0.0240
     61 H          -1.6481    2.9280    6.7586 H       0  UNK0        0.0240
     62 C           0.3136    1.1685    4.7278 C.2     0  UNK0        0.2202
     63 C           1.7045    0.9126    2.7140 C.3     0  UNK0        0.0199
     64 H           1.5605    1.4584    1.9239 H       0  UNK0        0.0467
     65 H           1.1814    0.1016    2.6176 H       0  UNK0        0.0467
     66 C           3.1867    0.5513    2.8168 C.3     0  UNK0        0.0395
     67 H           3.7195    1.3615    2.8268 H       0  UNK0        0.0374
     68 H           3.3485    0.0740    3.6457 H       0  UNK0        0.0374
     69 C           3.5997   -0.3142    1.6439 C.2     0  UNK0        0.2151
     70 CA          5.0282   -0.5118   -0.3152 C.3     1  ALA1        0.1174
     71 HA          5.0238   -1.4809   -0.1716 H       1  ALA1        0.0611
     72 CB          6.4462   -0.1003   -0.7300 C.3     1  ALA1       -0.0362
     73 HB1         6.4811    0.8512   -0.8493 H       1  ALA1        0.0253
     74 HB2         6.6768   -0.5354   -1.5538 H       1  ALA1        0.0253
     75 HB3         7.0673   -0.3597   -0.0465 H       1  ALA1        0.0253
     76 C           4.0515   -0.1971   -1.4492 C.2     1  ALA1        0.3250
     77 O           4.6397    2.4460   12.4789 O.3     0  UNK0       -0.4951
     78 O           2.6211    4.1434    4.2926 O.2     0  UNK0       -0.2752
     79 O           5.7151    2.8153    1.1702 O.2     0  UNK0       -0.2757
     80 OXT         5.8846    4.9322   -1.3437 O.3     1  ALA1       -0.4793
     81 HXT         5.4362    5.0758   -2.0151 H       1  ALA1        0.2951
     82 O           6.6984    3.3003   -2.6042 O.2     1  ALA1       -0.2489
     83 O           1.9152   -1.8903   12.5746 O.3     0  UNK0       -0.4951
     84 O          -0.2888    0.1090    4.5588 O.2     0  UNK0       -0.2752
     85 O           2.9952   -1.3449    1.3580 O.2     0  UNK0       -0.2757
     86 OXT         3.1793    0.7423   -1.1769 O.3     1  ALA1       -0.4793
     87 HXT         2.8025    0.9739   -1.8667 H       1  ALA1        0.2951
     88 O           4.1171   -0.7634   -2.5221 O.2     1  ALA1       -0.2489
     89 O           0.1480   -2.5505   14.6426 O.3     1  HOH1       -0.4105
     90 O           2.8414    1.6691   14.4965 O.3     2  HOH2       -0.4105
     91 N           4.0431    5.8282    3.7755 N.am    0  UNK0       -0.3144
     92 N           7.3685    4.2883    0.7890 N.am    1  ALA1       -0.3025
     93 N           1.2544    1.6403    3.8900 N.am    0  UNK0       -0.3144
     94 N           4.6627    0.1287    0.9344 N.am    1  ALA1       -0.3025
     95 H           4.3036    6.5501    3.9747 H       0  UNK0        0.1487
     96 H           1.5908    2.3454    4.0230 H       0  UNK0        0.1487
     97 H           4.9635    0.9266    1.0889 H       1  ALA1        0.1495
     98 H           7.6611    4.9237    0.9208 H       1  ALA1        0.1495
     99 H           0.6787   -2.3507   14.0715 H       0  HOH0        0.2052
    100 H          -0.3201   -1.9844   14.8582 H       0  HOH0        0.2052
    101 H           3.3304    1.8696   13.9106 H       0  HOH0        0.2052
    102 H           2.5261    2.2056   14.6437 H       0  HOH0        0.2052
    103 H           3.8274   -1.2538   12.8199 H       0  UNK0        0.0660
    104 H           3.4060   -2.6565   13.4707 H       0  UNK0        0.0660
    105 H           3.5723   -2.8137   11.8133 H       0  UNK0        0.0660
    106 H           6.0977    2.1332   13.7264 H       0  UNK0        0.0660
    107 H           6.6158    2.6410   12.2299 H       0  UNK0        0.0660
    108 H           6.1008    3.6497   13.0881 H       0  UNK0        0.0660
@<TRIPOS>BOND
     1    82    38    2
     2    88    76    2
     3    81    80    1
     4    87    86    1
     5    36    34    1
     6    38    80    1
     7    38    32    1
     8    74    72    1
     9    76    86    1
    10    76    70    1
    11    35    34    1
    12    34    32    1
    13    34    37    1
    14    73    72    1
    15    72    70    1
    16    72    75    1
    17    32    33    1
    18    32    92    1
    19    70    71    1
    20    70    94    1
    21    92    98    1
    22    92    31   am
    23    94    97    1
    24    94    69   am
    25    79    31    2
    26    85    69    2
    27    31    28    1
    28    69    66    1
    29    26    25    1
    30    64    63    1
    31    27    25    1
    32    25    28    1
    33    25    91    1
    34    65    63    1
    35    63    66    1
    36    63    93    1
    37    28    30    1
    38    28    29    1
    39    66    67    1
    40    66    68    1
    41    91    95    1
    42    91    24   am
    43    93    96    1
    44    93    62   am
    45    78    24    2
    46    24    18    1
    47    84    62    2
    48    62    56    1
    49    22    20    1
    50    60    58    1
    51    19    18    1
    52    21    20    1
    53    20    18    1
    54    20    23    1
    55    18    15    1
    56    57    56    1
    57    56    58    1
    58    56    53    1
    59    58    59    1
    60    58    61    1
    61    52    51    1
    62    14    13    1
    63    15    13   ar
    64    15    16   ar
    65    51    53   ar
    66    51    49   ar
    67    53    54   ar
    68    13    11   ar
    69    17    16    1
    70    16     7   ar
    71    50    49    1
    72    49    46   ar
    73    54    55    1
    74    54    45   ar
    75    11    12    1
    76    11     8   ar
    77     7     8   ar
    78     7     5   ar
    79    46    45   ar
    80    46    47   ar
    81     8     9   ar
    82    45    43   ar
    83     6     5    1
    84     5     3   ar
    85    48    47    1
    86    47    40   ar
    87    43    44    1
    88    43    41   ar
    89     9    10    1
    90     9     2   ar
    91     3     2   ar
    92     3     4    1
    93     2    77    1
    94    40    41   ar
    95    40    83    1
    96    41    42    1
    97   105    39    1
    98   107     1    1
    99    77     1    1
   100    83    39    1
   101    39   103    1
   102    39   104    1
   103     1   108    1
   104     1   106    1
   105   101    90    1
   106    99    89    1
   107    90   102    1
   108    89   100    1
