@<TRIPOS>MOLECULE
?
 66 67 0 0 0
SMALL
GASTEIGER

@<TRIPOS>ATOM
      1 C           6.2044    3.2991    2.6097 C.ar    1  LIG1        0.0674
      2 C           6.3055    4.6064    2.1527 C.ar    1  LIG1        0.0674
      3 C           5.3952    5.0553    1.2142 C.ar    1  LIG1        0.1755
      4 C           4.4144    4.2429    0.7210 C.ar    1  LIG1        0.1973
      5 C           4.3229    2.9543    1.1663 C.ar    1  LIG1        0.1973
      6 C           5.2151    2.4981    2.0906 C.ar    1  LIG1        0.1755
      7 C           1.1327    2.4174    7.7540 C.ar    2  LIG2        0.0674
      8 C           2.0880    2.2749    8.7728 C.ar    2  LIG2        0.0674
      9 C           2.6913    3.3974    9.2802 C.ar    2  LIG2        0.1755
     10 C           2.3965    4.6526    8.8181 C.ar    2  LIG2        0.1973
     11 C           1.4827    4.8009    7.7955 C.ar    2  LIG2        0.1973
     12 C           0.8702    3.6895    7.2893 C.ar    2  LIG2        0.1755
     13 C           5.6478   -4.9828   12.2395 C.ar    3  LIG3       -0.0478
     14 H           4.9862   -5.5773   11.9676 H       3  LIG3        0.0626
     15 C           6.6516   -5.4023   13.0809 C.ar    3  LIG3       -0.0610
     16 H           6.6729   -6.2862   13.3657 H       3  LIG3        0.0618
     17 C           7.6237   -4.5285   13.5016 C.ar    3  LIG3       -0.0617
     18 H           8.2898   -4.8201   14.0815 H       3  LIG3        0.0618
     19 C           7.6161   -3.2228   13.0692 C.ar    3  LIG3       -0.0610
     20 H           8.2792   -2.6333   13.3489 H       3  LIG3        0.0618
     21 C           6.6108   -2.7898   12.2110 C.ar    3  LIG3       -0.0478
     22 H           6.6008   -1.9094   11.9120 H       3  LIG3        0.0626
     23 C           5.6265   -3.6739   11.8032 C.ar    3  LIG3        0.0590
     24 C           4.5794   -3.1632   10.8738 C.2     3  LIG3        0.3394
     25 C           2.5522   -3.7374    9.7372 C.3     3  LIG3        0.1069
     26 H           2.4657   -2.7705    9.6013 H       3  LIG3        0.0735
     27 C           1.2599   -4.3235   10.2472 C.3     3  LIG3        0.0047
     28 H           1.0315   -3.9050   11.0912 H       3  LIG3        0.0319
     29 H           1.3830   -5.2726   10.4103 H       3  LIG3        0.0319
     30 C           0.1081   -4.1318    9.2660 C.3     3  LIG3        0.0482
     31 C          -1.0512   -5.0468    9.6595 C.3     3  LIG3       -0.0444
     32 H          -1.7901   -4.9003    9.0654 H       3  LIG3        0.0248
     33 H          -1.3206   -4.8536   10.5605 H       3  LIG3        0.0248
     34 H          -0.7692   -5.9636    9.6000 H       3  LIG3        0.0248
     35 C          -0.3778   -2.6750    9.2336 C.3     3  LIG3       -0.0444
     36 H           0.3729   -2.0912    9.1081 H       3  LIG3        0.0248
     37 H          -0.8122   -2.4639   10.0634 H       3  LIG3        0.0248
     38 H          -0.9984   -2.5612    8.5100 H       3  LIG3        0.0248
     39 C           1.9152   -4.2474    7.3411 C.3     3  LIG3        0.0482
     40 C           2.1713   -5.2541    6.2252 C.3     3  LIG3       -0.0444
     41 H           2.0880   -6.1450    6.5722 H       3  LIG3        0.0248
     42 H           3.0566   -5.1272    5.8783 H       3  LIG3        0.0248
     43 H           1.5298   -5.1219    5.5223 H       3  LIG3        0.0248
     44 C           1.9421   -2.8305    6.7689 C.3     3  LIG3       -0.0444
     45 H           1.1873   -2.7046    6.1903 H       3  LIG3        0.0248
     46 H           2.7524   -2.7023    6.2705 H       3  LIG3        0.0248
     47 H           1.9043   -2.1946    7.4874 H       3  LIG3        0.0248
     48 C           2.9423   -4.4239    8.4531 C.3     3  LIG3        0.0047
     49 H           3.0594   -5.3715    8.6265 H       3  LIG3        0.0319
     50 H           3.7945   -4.0710    8.1540 H       3  LIG3        0.0319
     51 F           5.4616    6.3090    0.7340 F       1  LIG1       -0.2013
     52 F           3.5304    4.6993   -0.1851 F       1  LIG1       -0.1993
     53 F           3.3552    2.1421    0.6913 F       1  LIG1       -0.1993
     54 F           5.0799    1.2061    2.4738 F       1  LIG1       -0.2013
     55 F           3.6032    3.3017   10.2563 F       2  LIG2       -0.2013
     56 F           2.9715    5.7352    9.3566 F       2  LIG2       -0.1993
     57 F           1.2073    6.0144    7.3204 F       2  LIG2       -0.1993
     58 F          -0.0009    3.8725    6.2783 F       2  LIG2       -0.2013
     59 I           7.4392    2.4948    4.0711 I       1  LIG1       -0.0396
     60 I           7.8109    5.9100    2.7526 I       1  LIG1       -0.0396
     61 I           0.0877    0.8027    6.9351 I       2  LIG2       -0.0396
     62 I           2.7186    0.4382    9.5398 I       2  LIG2       -0.0396
     63 N           0.5590   -4.5328    7.8977 N.4     3  LIG3       -0.1428
     64 O           4.6062   -2.0961   10.3262 O.2     3  LIG3       -0.2450
     65 O           3.5803   -4.0309   10.7353 O.3     3  LIG3       -0.4577
     66 O          -0.3712   -4.7443    7.0369 O.3     3  LIG3       -0.1183
@<TRIPOS>BOND
     1    52     4    1
     2    53     5    1
     3     4     5   ar
     4     4     3   ar
     5    51     3    1
     6     5     6   ar
     7     3     2   ar
     8     6    54    1
     9     6     1   ar
    10     2     1   ar
    11     2    60    1
    12     1    59    1
    13    43    40    1
    14    42    40    1
    15    45    44    1
    16    40    41    1
    17    40    39    1
    18    46    44    1
    19    58    12    1
    20    44    39    1
    21    44    47    1
    22    61     7    1
    23    66    63    1
    24    12     7   ar
    25    12    11   ar
    26    57    11    1
    27    39    63    1
    28    39    48    1
    29     7     8   ar
    30    11    10   ar
    31    63    30    1
    32    50    48    1
    33    48    49    1
    34    48    25    1
    35    38    35    1
    36     8     9   ar
    37     8    62    1
    38    10     9   ar
    39    10    56    1
    40    32    31    1
    41    36    35    1
    42    35    30    1
    43    35    37    1
    44    30    31    1
    45    30    27    1
    46     9    55    1
    47    34    31    1
    48    26    25    1
    49    31    33    1
    50    25    27    1
    51    25    65    1
    52    27    29    1
    53    27    28    1
    54    64    24    2
    55    65    24    1
    56    24    23    1
    57    23    21   ar
    58    23    13   ar
    59    22    21    1
    60    14    13    1
    61    21    19   ar
    62    13    15   ar
    63    19    20    1
    64    19    17   ar
    65    15    16    1
    66    15    17   ar
    67    17    18    1
