@<TRIPOS>MOLECULE
(E)-bis(2-chlorophenyl)diazene
 12 12 0 0 0
SMALL
GASTEIGER

@<TRIPOS>ATOM
      1 CL         -0.3603    1.0561    5.4722 Cl      1  LIG1       -0.0815
      2 N           2.3921    1.8762    6.0746 N.pl3   1  LIG1       -0.1278
      3 C           1.1883    2.4825    2.0862 C.ar    1  LIG1       -0.0603
      4 H           0.8987    2.6217    1.1918 H       1  LIG1        0.0618
      5 C           2.4872    2.8364    2.4557 C.ar    1  LIG1       -0.0598
      6 H           3.0808    3.2075    1.8136 H       1  LIG1        0.0618
      7 C           2.9070    2.6438    3.7625 C.ar    1  LIG1       -0.0358
      8 H           3.7879    2.8925    4.0166 H       1  LIG1        0.0638
      9 C           2.0419    2.0863    4.7112 C.ar    1  LIG1        0.0906
     10 C           0.7442    1.7412    4.3206 C.ar    1  LIG1        0.0654
     11 C           0.3163    1.9288    3.0143 C.ar    1  LIG1       -0.0415
     12 H          -0.5635    1.6813    2.7569 H       1  LIG1        0.0633
@<TRIPOS>BOND
     1     4     3    1
     2     6     5    1
     3     3     5   ar
     4     3    11   ar
     5     5     7   ar
     6    12    11    1
     7    11    10   ar
     8     7     8    1
     9     7     9   ar
    10    10     9   ar
    11    10     1    1
    12     9     2    1
