@<TRIPOS>MOLECULE
?
 27 27 0 0 0
SMALL
GASTEIGER

@<TRIPOS>ATOM
      1 S           0.9242   -0.4032    9.8038 S.3     1  LIG1       -0.0090
      2 O          -0.5754   -0.4279    9.8508 O.3     1  LIG1       -0.1570
      3 O           3.4388   -0.4751   11.4342 O.3     1  LIG1       -0.3820
      4 H           4.1307   -0.5204   10.9590 H       1  LIG1        0.2102
      5 F           2.6979    2.7933   12.6165 F       1  LIG1       -0.1679
      6 F           2.7954    0.9438   13.7068 F       1  LIG1       -0.1679
      7 F           4.5576    1.7059   12.7118 F       1  LIG1       -0.1679
      8 C           1.3807    0.6801   11.1886 C.3     1  LIG1        0.0506
      9 H           0.9937    1.5788   11.0411 H       1  LIG1        0.0422
     10 H           0.9997    0.3167   12.0267 H       1  LIG1        0.0422
     11 C           2.8893    0.8016   11.3350 C.3     1  LIG1        0.1604
     12 H           3.2701    1.2733   10.5394 H       1  LIG1        0.0692
     13 C           3.2340    1.5676   12.6016 C.3     1  LIG1        0.4162
     14 C           1.3677    0.6662    8.4400 C.ar    1  LIG1        0.0265
     15 C           2.6421    0.5932    7.9053 C.ar    1  LIG1       -0.0467
     16 H           3.2786   -0.0168    8.2606 H       1  LIG1        0.0629
     17 C           2.9751    1.4181    6.8485 C.ar    1  LIG1       -0.0578
     18 H           3.8545    1.3854    6.4893 H       1  LIG1        0.0621
     19 C           2.0432    2.3010    6.2993 C.ar    1  LIG1       -0.0504
     20 C           0.7586    2.3103    6.8248 C.ar    1  LIG1       -0.0578
     21 H           0.1033    2.8783    6.4379 H       1  LIG1        0.0621
     22 C           0.4102    1.5134    7.9014 C.ar    1  LIG1       -0.0467
     23 H          -0.4674    1.5452    8.2635 H       1  LIG1        0.0629
     24 C           2.4403    3.2249    5.1713 C.3     1  LIG1       -0.0397
     25 H           3.2291    3.7425    5.4355 H       1  LIG1        0.0278
     26 H           1.7000    3.8359    4.9734 H       1  LIG1        0.0278
     27 H           2.6488    2.6962    4.3737 H       1  LIG1        0.0278
@<TRIPOS>BOND
     1    27    24    1
     2    26    24    1
     3    24    25    1
     4    24    19    1
     5    19    20   ar
     6    19    17   ar
     7    21    20    1
     8    18    17    1
     9    20    22   ar
    10    17    15   ar
    11    22    23    1
    12    22    14   ar
    13    15    16    1
    14    15    14   ar
    15    14     1    1
    16     1     2    1
    17     1     8    1
    18    12    11    1
    19     4     3    1
    20     9     8    1
    21     8    11    1
    22     8    10    1
    23    11     3    1
    24    11    13    1
    25    13     5    1
    26    13     7    1
    27    13     6    1
