@<TRIPOS>MOLECULE
6(4)-O-CAMPHORSULFONYL 2,4(6)DIBENZOYL MYO-INOSITOL 1,3,5 ORTHOFORMATE
 150 162 0 0 0
SMALL
GASTEIGER

@<TRIPOS>ATOM
      1 S          -1.4043    8.0233    6.9485 S.O2    1  LIG1        0.0835
      2 O          -2.7556    8.3787    7.2179 O.2     1  LIG1       -0.1472
      3 C          -2.0841   12.2829    3.7931 C.3     1  LIG1        0.2754
      4 C           8.8275    4.3968    4.9379 C.3     2  LIG2        0.2754
      5 C           7.0794    5.5340    3.8959 C.3     2  LIG2        0.1342
      6 S           7.8425    8.8332    2.0883 S.O2    2  LIG2        0.0835
      7 O           8.3783    4.7433    6.2176 O.3     2  LIG2       -0.3180
      8 O           5.6057    5.0897    5.7726 O.3     2  LIG2       -0.4524
      9 O           7.7502    4.2733    4.0477 O.3     2  LIG2       -0.3190
     10 O           7.3828    7.7701    3.1734 O.3     2  LIG2       -0.2296
     11 O           9.7808    5.2999    4.4584 O.3     2  LIG2       -0.3190
     12 O           8.3559    8.3881    5.6947 O.3     2  LIG2       -0.4524
     13 O           4.0900    5.8592    4.3011 O.2     2  LIG2       -0.2449
     14 O           8.1254    8.4099    7.9287 O.2     2  LIG2       -0.2449
     15 O           9.2186    8.6152    1.8155 O.2     2  LIG2       -0.1472
     16 O           7.4020   10.0838    2.5874 O.2     2  LIG2       -0.1472
     17 O           6.1165    5.7251    0.9297 O.2     2  LIG2       -0.2967
     18 C           7.7279    6.0336    6.2065 C.3     2  LIG2        0.1425
     19 H           7.4113    6.2574    7.1062 H       2  LIG2        0.0674
     20 C           6.5627    6.0105    5.2399 C.3     2  LIG2        0.1618
     21 H           6.1691    6.9030    5.1582 H       2  LIG2        0.0789
     22 H           6.3331    5.4390    3.2668 H       2  LIG2        0.0664
     23 C           8.0961    6.5263    3.3466 C.3     2  LIG2        0.1468
     24 H           8.4369    6.2133    2.4834 H       2  LIG2        0.0675
     25 C           9.2433    6.6295    4.3547 C.3     2  LIG2        0.1342
     26 H           9.9285    7.2473    4.0255 H       2  LIG2        0.0664
     27 C           8.8084    7.0259    5.7695 C.3     2  LIG2        0.1618
     28 H           9.5748    6.9668    6.3777 H       2  LIG2        0.0789
     29 H           9.2587    3.5193    5.0022 H       2  LIG2        0.1257
     30 C           4.3824    5.1040    5.1803 C.2     2  LIG2        0.3396
     31 C           3.5014    4.0560    5.7603 C.ar    2  LIG2        0.0590
     32 C           2.3198    3.7616    5.0961 C.ar    2  LIG2       -0.0478
     33 H           2.0722    4.2473    4.3428 H       2  LIG2        0.0626
     34 C           1.5146    2.7415    5.5623 C.ar    2  LIG2       -0.0610
     35 H           0.7269    2.5329    5.1139 H       2  LIG2        0.0618
     36 C           1.8725    2.0298    6.6884 C.ar    2  LIG2       -0.0617
     37 H           1.3269    1.3412    6.9963 H       2  LIG2        0.0618
     38 C           3.0358    2.3358    7.3574 C.ar    2  LIG2       -0.0610
     39 H           3.2674    1.8605    8.1219 H       2  LIG2        0.0618
     40 C           3.8622    3.3455    6.9008 C.ar    2  LIG2       -0.0478
     41 H           4.6509    3.5472    7.3509 H       2  LIG2        0.0626
     42 C           8.1017    8.9884    6.8781 C.2     2  LIG2        0.3396
     43 C           7.7824   10.4224    6.7118 C.ar    2  LIG2        0.0590
     44 C           7.1667   11.0993    7.7546 C.ar    2  LIG2       -0.0478
     45 H           6.9667   10.6484    8.5438 H       2  LIG2        0.0626
     46 C           6.8517   12.4289    7.6318 C.ar    2  LIG2       -0.0610
     47 H           6.4214   12.8694    8.3293 H       2  LIG2        0.0618
     48 C           7.1710   13.1198    6.4743 C.ar    2  LIG2       -0.0617
     49 H           6.9601   14.0217    6.3919 H       2  LIG2        0.0618
     50 C           7.8032   12.4568    5.4485 C.ar    2  LIG2       -0.0610
     51 H           8.0394   12.9216    4.6778 H       2  LIG2        0.0618
     52 C           8.0922   11.1109    5.5457 C.ar    2  LIG2       -0.0478
     53 H           8.4926   10.6658    4.8338 H       2  LIG2        0.0626
     54 C           6.9149    8.4459    0.6326 C.3     2  LIG2        0.1056
     55 H           6.9582    9.2145    0.0425 H       2  LIG2        0.0535
     56 H           7.3642    7.7145    0.1826 H       2  LIG2        0.0535
     57 C           5.4583    8.0680    0.7883 C.3     2  LIG2        0.0560
     58 C           4.6317    8.5816    2.0003 C.3     2  LIG2       -0.0383
     59 H           4.8169    8.0553    2.7936 H       2  LIG2        0.0275
     60 H           4.8310    9.5124    2.1856 H       2  LIG2        0.0275
     61 C           3.1593    8.4100    1.5576 C.3     2  LIG2       -0.0484
     62 H           2.6688    7.8513    2.1803 H       2  LIG2        0.0268
     63 H           2.7137    9.2690    1.4836 H       2  LIG2        0.0268
     64 C           3.2861    7.7330    0.1886 C.3     2  LIG2       -0.0282
     65 H           2.4792    7.7817   -0.3651 H       2  LIG2        0.0310
     66 C           3.7956    6.3188    0.4449 C.3     2  LIG2        0.0098
     67 H           3.3281    5.9050    1.1876 H       2  LIG2        0.0345
     68 H           3.6978    5.7612   -0.3439 H       2  LIG2        0.0345
     69 C           5.2532    6.5495    0.7759 C.2     2  LIG2        0.1419
     70 C           4.5295    8.4448   -0.4160 C.3     2  LIG2       -0.0178
     71 C           5.0088    7.8350   -1.7430 C.3     2  LIG2       -0.0586
     72 H           4.3370    7.9660   -2.4160 H       2  LIG2        0.0235
     73 H           5.1645    6.8961   -1.6254 H       2  LIG2        0.0235
     74 H           5.8226    8.2639   -2.0172 H       2  LIG2        0.0235
     75 C           4.3714    9.9367   -0.6080 C.3     2  LIG2       -0.0586
     76 H           3.6964   10.1047   -1.2709 H       2  LIG2        0.0235
     77 H           5.2059   10.3122   -0.9005 H       2  LIG2        0.0235
     78 H           4.1117   10.3412    0.2233 H       2  LIG2        0.0235
     79 O          -1.0594   12.3640    4.7439 O.3     1  LIG1       -0.3190
     80 O           1.1180   11.4447    3.1130 O.3     1  LIG1       -0.4524
     81 O          -1.5923   11.8999    2.5475 O.3     1  LIG1       -0.3180
     82 O          -1.7324    8.2698    3.1109 O.3     1  LIG1       -0.4524
     83 O          -3.1099   11.4312    4.2271 O.3     1  LIG1       -0.3190
     84 O          -0.9406    8.8542    5.6713 O.3     1  LIG1       -0.2296
     85 O           2.5879   10.6126    4.5996 O.2     1  LIG1       -0.2449
     86 O          -1.5079    8.1856    0.8826 O.2     1  LIG1       -0.2449
     87 O          -1.0699    6.6839    6.6491 O.2     1  LIG1       -0.1472
     88 O           0.2341    6.1469    9.4937 O.2     1  LIG1       -0.2967
     89 C          -0.4457   11.0750    4.9458 C.3     1  LIG1        0.1342
     90 H           0.2702   11.1422    5.6120 H       1  LIG1        0.0664
     91 C           0.1118   10.5626    3.6267 C.3     1  LIG1        0.1618
     92 H           0.4676    9.6550    3.7295 H       1  LIG1        0.0789
     93 C          -1.0086   10.5870    2.5998 C.3     1  LIG1        0.1425
     94 H          -0.6616   10.3366    1.7176 H       1  LIG1        0.0674
     95 C          -2.1402    9.6411    3.0068 C.3     1  LIG1        0.1618
     96 H          -2.8722    9.7129    2.3593 H       1  LIG1        0.0789
     97 C          -2.6342   10.0792    4.3758 C.3     1  LIG1        0.1342
     98 H          -3.3640    9.4962    4.6743 H       1  LIG1        0.0664
     99 C          -1.5400   10.1418    5.4441 C.3     1  LIG1        0.1468
    100 H          -1.9134   10.4861    6.2820 H       1  LIG1        0.0675
    101 H          -2.4682   13.1789    3.6958 H       1  LIG1        0.1257
    102 C           2.3347   11.3833    3.7088 C.2     1  LIG1        0.3396
    103 C           3.2531   12.3861    3.1336 C.ar    1  LIG1        0.0590
    104 C           4.4280   12.6793    3.8160 C.ar    1  LIG1       -0.0478
    105 H           4.6604   12.2006    4.5786 H       1  LIG1        0.0626
    106 C           5.2456   13.6867    3.3505 C.ar    1  LIG1       -0.0610
    107 H           6.0194   13.9046    3.8181 H       1  LIG1        0.0618
    108 C           4.9278   14.3741    2.2001 C.ar    1  LIG1       -0.0617
    109 H           5.4921   15.0429    1.8860 H       1  LIG1        0.0618
    110 C           3.7779   14.0738    1.5173 C.ar    1  LIG1       -0.0610
    111 H           3.5668   14.5352    0.7374 H       1  LIG1        0.0618
    112 C           2.9337   13.0920    1.9805 C.ar    1  LIG1       -0.0478
    113 H           2.1489   12.8996    1.5209 H       1  LIG1        0.0626
    114 C          -1.4665    7.6322    1.9481 C.2     1  LIG1        0.3396
    115 C          -1.1065    6.2179    2.1703 C.ar    1  LIG1        0.0590
    116 C          -1.3039    5.5839    3.3794 C.ar    1  LIG1       -0.0478
    117 H          -1.6630    6.0545    4.0964 H       1  LIG1        0.0626
    118 C          -0.9688    4.2485    3.5262 C.ar    1  LIG1       -0.0610
    119 H          -1.1105    3.8207    4.3393 H       1  LIG1        0.0618
    120 C          -0.4254    3.5541    2.4724 C.ar    1  LIG1       -0.0617
    121 H          -0.1942    2.6592    2.5755 H       1  LIG1        0.0618
    122 C          -0.2241    4.1778    1.2704 C.ar    1  LIG1       -0.0610
    123 H           0.1460    3.7025    0.5619 H       1  LIG1        0.0618
    124 C          -0.5638    5.5016    1.1001 C.ar    1  LIG1       -0.0478
    125 H          -0.4329    5.9154    0.2783 H       1  LIG1        0.0626
    126 C          -0.3914    8.6812    8.2441 C.3     1  LIG1        0.1056
    127 H          -0.3464    9.6434    8.1308 H       1  LIG1        0.0535
    128 H          -0.8362    8.5097    9.0897 H       1  LIG1        0.0535
    129 C           1.0233    8.1550    8.3449 C.3     1  LIG1        0.0560
    130 C           1.8391    7.8918    7.0332 C.3     1  LIG1       -0.0383
    131 H           1.6079    7.0352    6.6436 H       1  LIG1        0.0275
    132 H           1.6831    8.5908    6.3777 H       1  LIG1        0.0275
    133 C           3.3067    7.9034    7.5200 C.3     1  LIG1       -0.0484
    134 H           3.7543    7.0734    7.2924 H       1  LIG1        0.0268
    135 H           3.7968    8.6442    7.1293 H       1  LIG1        0.0268
    136 C           3.1896    8.0657    9.0304 C.3     1  LIG1       -0.0282
    137 H           4.0151    8.3520    9.4726 H       1  LIG1        0.0310
    138 C           2.5992    6.7523    9.5733 C.3     1  LIG1        0.0098
    139 H           3.0181    5.9792    9.1642 H       1  LIG1        0.0345
    140 H           2.6922    6.6944   10.5362 H       1  LIG1        0.0345
    141 C           1.1381    6.8752    9.1630 C.2     1  LIG1        0.1419
    142 C           2.0083    9.0580    9.1676 C.3     1  LIG1       -0.0178
    143 C           1.5249    9.2817   10.5984 C.3     1  LIG1       -0.0586
    144 H           2.1866    9.7790   11.0857 H       1  LIG1        0.0235
    145 H           1.3833    8.4332   11.0254 H       1  LIG1        0.0235
    146 H           0.7012    9.7744   10.5840 H       1  LIG1        0.0235
    147 C           2.2731   10.4177    8.5509 C.3     1  LIG1       -0.0586
    148 H           1.4952   10.9718    8.6519 H       1  LIG1        0.0235
    149 H           2.4724   10.3122    7.6185 H       1  LIG1        0.0235
    150 H           3.0187   10.8292    8.9923 H       1  LIG1        0.0235
@<TRIPOS>BOND
     1    72    71    1
     2    74    71    1
     3    71    73    1
     4    71    70    1
     5    76    75    1
     6    77    75    1
     7    75    70    1
     8    75    78    1
     9    70    64    1
    10    70    57    1
    11    65    64    1
    12    68    66    1
    13    55    54    1
    14    56    54    1
    15    64    66    1
    16    64    61    1
    17   125   124    1
    18    66    69    1
    19    66    67    1
    20   123   122    1
    21    54    57    1
    22    54     6    1
    23   111   110    1
    24    69    57    1
    25    69    17    2
    26    57    58    1
    27    86   114    2
    28   124   122   ar
    29   124   115   ar
    30   122   120   ar
    31    63    61    1
    32   110   112   ar
    33   110   108   ar
    34   113   112    1
    35    61    58    1
    36    61    62    1
    37    94    93    1
    38    15     6    2
    39   109   108    1
    40   114   115    1
    41   114    82    1
    42   112   103   ar
    43    58    60    1
    44    58    59    1
    45     6    16    2
    46     6    10    1
    47   115   116   ar
    48   108   106   ar
    49    96    95    1
    50   120   121    1
    51   120   118   ar
    52    24    23    1
    53    81    93    1
    54    81     3    1
    55    93    95    1
    56    93    91    1
    57    95    82    1
    58    95    97    1
    59    80    91    1
    60    80   102    1
    61   103   102    1
    62   103   104   ar
    63    10    23    1
    64    22     5    1
    65    23     5    1
    66    23    25    1
    67   106   104   ar
    68   106   107    1
    69   116   118   ar
    70   116   117    1
    71   118   119    1
    72    91    92    1
    73    91    89    1
    74   101     3    1
    75   102    85    2
    76     3    83    1
    77     3    79    1
    78   104   105    1
    79     5     9    1
    80     5    20    1
    81    26    25    1
    82     9     4    1
    83    83    97    1
    84    13    30    2
    85    33    32    1
    86    25    11    1
    87    25    27    1
    88    97    98    1
    89    97    99    1
    90    11     4    1
    91    51    50    1
    92    79    89    1
    93    53    52    1
    94     4    29    1
    95     4     7    1
    96    89    99    1
    97    89    90    1
    98    32    34   ar
    99    32    31   ar
   100    35    34    1
   101    21    20    1
   102    30    31    1
   103    30     8    1
   104    20     8    1
   105    20    18    1
   106    99    84    1
   107    99   100    1
   108    50    52   ar
   109    50    48   ar
   110    52    43   ar
   111    34    36   ar
   112    84     1    1
   113    12    27    1
   114    12    42    1
   115    31    40   ar
   116    27    18    1
   117    27    28    1
   118    18     7    1
   119    18    19    1
   120   132   130    1
   121    49    48    1
   122    48    46   ar
   123   131   130    1
   124    87     1    2
   125    36    37    1
   126    36    38   ar
   127    43    42    1
   128    43    44   ar
   129    42    14    2
   130    40    41    1
   131    40    38   ar
   132     1     2    2
   133     1   126    1
   134   130   133    1
   135   130   129    1
   136   135   133    1
   137   134   133    1
   138    38    39    1
   139   133   136    1
   140   149   147    1
   141    46    44   ar
   142    46    47    1
   143    44    45    1
   144   127   126    1
   145   126   129    1
   146   126   128    1
   147   129   141    1
   148   129   142    1
   149   147   148    1
   150   147   150    1
   151   147   142    1
   152   136   142    1
   153   136   137    1
   154   136   138    1
   155   141    88    2
   156   141   138    1
   157   139   138    1
   158   142   143    1
   159   138   140    1
   160   146   143    1
   161   143   145    1
   162   143   144    1
