@<TRIPOS>MOLECULE
1,4-Butanedioic acid
 7 6 0 0 0
SMALL
GASTEIGER

@<TRIPOS>ATOM
      1 O           0.3369    5.6346    1.2624 O.3     1  LIG1       -0.4806
      2 O           1.2799    3.7132    1.9102 O.2     1  LIG1       -0.2510
      3 C           2.2841    4.9864    0.1315 C.3     1  LIG1        0.0548
      4 H           2.8204    5.7460    0.4082 H       1  LIG1        0.0383
      5 H           1.8307    5.2272   -0.6914 H       1  LIG1        0.0383
      6 C           1.2590    4.6971    1.1918 C.2     1  LIG1        0.3052
      7 H          -0.2259    5.4347    1.9099 H       1  LIG1        0.2951
@<TRIPOS>BOND
     1     5     3    1
     2     3     4    1
     3     3     6    1
     4     6     1    1
     5     6     2    2
     6     1     7    1
