@<TRIPOS>MOLECULE
?
 138 140 0 0 0
SMALL
GASTEIGER

@<TRIPOS>ATOM
      1 O           3.0827    5.0061    1.6128 O.2     1  LIG1       -0.2525
      2 O           2.3055    7.1517    4.7384 O.2     1  LIG1       -0.2525
      3 O           3.7531   13.2300    3.9558 O.2     2  LIG2       -0.2525
      4 O           0.7998   11.0601    2.7572 O.2     2  LIG2       -0.2525
      5 O          -2.0363    6.4722   -0.0267 O.3     1  LIG1       -0.3953
      6 O           2.7346   12.4909   -2.2447 O.3     2  LIG2       -0.3953
      7 N          -0.9208    4.2110    1.0610 N.ar    1  LIG1       -0.2614
      8 N           2.2103    3.2008    2.7536 N.am    1  LIG1       -0.2681
      9 N           4.4549    3.5874    2.7481 N.am    1  LIG1       -0.2902
     10 N           3.6194    6.5196    6.4956 N.am    1  LIG1       -0.2902
     11 N           1.4215    5.8935    6.4315 N.am    1  LIG1       -0.2681
     12 N          -2.2318    5.8899    6.4993 N.ar    1  LIG1       -0.2614
     13 N           8.0134   11.6679    1.6463 N.ar    2  LIG2       -0.2614
     14 N           5.6419   12.0290    4.3998 N.am    2  LIG2       -0.2681
     15 N           4.2717   12.6623    6.1062 N.am    2  LIG2       -0.2902
     16 N           0.8685    9.6511    4.5606 N.am    2  LIG2       -0.2902
     17 N           2.2479    9.2670    2.7797 N.am    2  LIG2       -0.2681
     18 N           2.8882   10.2650   -0.7095 N.ar    2  LIG2       -0.2614
     19 C           0.1871    1.9913    2.3388 C.ar    1  LIG1       -0.0375
     20 H           0.5546    1.2424    2.7938 H       1  LIG1        0.0637
     21 C          -1.0883    1.9390    1.7906 C.ar    1  LIG1       -0.0418
     22 H          -1.6048    1.1427    1.8454 H       1  LIG1        0.0633
     23 C          -1.5978    3.0708    1.1548 C.ar    1  LIG1        0.0277
     24 H          -2.4663    3.0258    0.7729 H       1  LIG1        0.0829
     25 C           0.3180    4.2633    1.5769 C.ar    1  LIG1        0.0488
     26 H           0.8026    5.0778    1.5111 H       1  LIG1        0.0848
     27 C           0.9181    3.1850    2.2017 C.ar    1  LIG1        0.0529
     28 C           3.2452    4.0190    2.3150 C.2     1  LIG1        0.3046
     29 C           5.7358    4.2329    2.4137 C.3     1  LIG1        0.0556
     30 C           5.9875    4.1345    0.8953 C.3     1  LIG1       -0.0397
     31 H           5.9923    3.1923    0.6249 H       1  LIG1        0.0253
     32 H           6.8527    4.5405    0.6815 H       1  LIG1        0.0253
     33 H           5.2756    4.6074    0.4148 H       1  LIG1        0.0253
     34 C           6.8088    3.4440    3.1592 C.3     1  LIG1       -0.0397
     35 H           6.6299    3.4780    4.1221 H       1  LIG1        0.0253
     36 H           7.6874    3.8366    2.9765 H       1  LIG1        0.0253
     37 H           6.7979    2.5116    2.8577 H       1  LIG1        0.0253
     38 C           5.7313    5.6808    2.9308 C.ar    1  LIG1       -0.0243
     39 C           6.2887    6.7360    2.2127 C.ar    1  LIG1       -0.0565
     40 H           6.6547    6.5804    1.3503 H       1  LIG1        0.0621
     41 C           6.3111    8.0076    2.7499 C.ar    1  LIG1       -0.0611
     42 H           6.6828    8.7224    2.2474 H       1  LIG1        0.0618
     43 C           5.7986    8.2543    4.0107 C.ar    1  LIG1       -0.0565
     44 H           5.8256    9.1345    4.3688 H       1  LIG1        0.0621
     45 C           5.2439    7.2162    4.7543 C.ar    1  LIG1       -0.0243
     46 C           5.2295    5.9482    4.1970 C.ar    1  LIG1       -0.0513
     47 H           4.8619    5.2322    4.7032 H       1  LIG1        0.0624
     48 C           4.7603    7.4325    6.1960 C.3     1  LIG1        0.0556
     49 C           5.8918    7.0022    7.1406 C.3     1  LIG1       -0.0397
     50 H           5.6123    7.1420    8.0706 H       1  LIG1        0.0253
     51 H           6.6923    7.5371    6.9579 H       1  LIG1        0.0253
     52 H           6.0928    6.0528    6.9999 H       1  LIG1        0.0253
     53 C           4.3323    8.8792    6.4792 C.3     1  LIG1       -0.0397
     54 H           3.6471    9.1503    5.8342 H       1  LIG1        0.0253
     55 H           5.1097    9.4712    6.3988 H       1  LIG1        0.0253
     56 H           3.9691    8.9400    7.3873 H       1  LIG1        0.0253
     57 C           2.4519    6.5694    5.8196 C.2     1  LIG1        0.3046
     58 C           0.0990    5.8668    5.9347 C.ar    1  LIG1        0.0529
     59 C          -0.9397    5.8911    6.8373 C.ar    1  LIG1        0.0488
     60 H          -0.7237    5.9093    7.7618 H       1  LIG1        0.0848
     61 C          -2.5147    5.8631    5.1837 C.ar    1  LIG1        0.0277
     62 H          -3.4235    5.8947    4.9096 H       1  LIG1        0.0829
     63 C          -1.5338    5.7914    4.2226 C.ar    1  LIG1       -0.0418
     64 H          -1.7728    5.7476    3.3035 H       1  LIG1        0.0633
     65 C          -0.2089    5.7817    4.5880 C.ar    1  LIG1       -0.0375
     66 H           0.4764    5.7197    3.9339 H       1  LIG1        0.0637
     67 C           7.4636   11.8466    2.8376 C.ar    2  LIG2        0.0488
     68 H           8.0448   11.9572    3.5813 H       2  LIG2        0.0848
     69 C           7.1829   11.5354    0.5975 C.ar    2  LIG2        0.0277
     70 H           7.5522   11.4223   -0.2704 H       2  LIG2        0.0829
     71 C           5.8116   11.5597    0.7418 C.ar    2  LIG2       -0.0418
     72 H           5.2519   11.4576   -0.0183 H       2  LIG2        0.0633
     73 C           5.2537   11.7311    1.9953 C.ar    2  LIG2       -0.0375
     74 H           4.3110   11.7445    2.1086 H       2  LIG2        0.0637
     75 C           6.0993   11.8843    3.0788 C.ar    2  LIG2        0.0529
     76 C           4.5005   12.6818    4.7781 C.2     2  LIG2        0.3046
     77 C           3.3250   13.5668    6.7953 C.3     2  LIG2        0.0556
     78 C           3.7932   15.0073    6.6473 C.3     2  LIG2       -0.0397
     79 H           4.7143   15.0863    6.9725 H       2  LIG2        0.0253
     80 H           3.2102   15.5957    7.1717 H       2  LIG2        0.0253
     81 H           3.7567   15.2675    5.7026 H       2  LIG2        0.0253
     82 C           3.3633   13.1352    8.2680 C.3     2  LIG2       -0.0397
     83 H           3.1175   12.1882    8.3356 H       2  LIG2        0.0253
     84 H           2.7306   13.6762    8.7832 H       2  LIG2        0.0253
     85 H           4.2679   13.2641    8.6224 H       2  LIG2        0.0253
     86 C           1.8951   13.3309    6.2855 C.ar    2  LIG2       -0.0243
     87 C           0.9508   14.3557    6.2215 C.ar    2  LIG2       -0.0565
     88 H           1.2084   15.2480    6.4225 H       2  LIG2        0.0621
     89 C          -0.3555   14.0786    5.8707 C.ar    2  LIG2       -0.0611
     90 H          -0.9895   14.7849    5.8269 H       2  LIG2        0.0618
     91 C          -0.7543   12.7790    5.5802 C.ar    2  LIG2       -0.0565
     92 H          -1.6612   12.6040    5.3573 H       2  LIG2        0.0621
     93 C           0.1548   11.7408    5.6113 C.ar    2  LIG2       -0.0243
     94 C           1.4797   12.0460    5.9694 C.ar    2  LIG2       -0.0513
     95 H           2.1179   11.3421    5.9950 H       2  LIG2        0.0624
     96 C          -0.2135   10.2942    5.3335 C.3     2  LIG2        0.0556
     97 C          -0.2501    9.5478    6.6692 C.3     2  LIG2       -0.0397
     98 H          -0.4909    8.6105    6.5139 H       2  LIG2        0.0253
     99 H          -0.9150    9.9635    7.2575 H       2  LIG2        0.0253
    100 H           0.6323    9.5916    7.0931 H       2  LIG2        0.0253
    101 C          -1.5429   10.1264    4.6081 C.3     2  LIG2       -0.0397
    102 H          -1.5120   10.6078    3.7548 H       2  LIG2        0.0253
    103 H          -2.2661   10.4899    5.1618 H       2  LIG2        0.0253
    104 H          -1.7058    9.1746    4.4400 H       2  LIG2        0.0253
    105 C           1.2564   10.0669    3.3200 C.2     2  LIG2        0.3046
    106 C           2.6373    9.2500    1.4398 C.ar    2  LIG2        0.0529
    107 C           2.4953   10.3161    0.5683 C.ar    2  LIG2        0.0488
    108 H           2.1013   11.1184    0.8917 H       2  LIG2        0.0848
    109 C           3.4430    9.1284   -1.1639 C.ar    2  LIG2        0.0277
    110 H           3.7165    9.0858   -2.0720 H       2  LIG2        0.0829
    111 C           3.6300    8.0173   -0.3581 C.ar    2  LIG2       -0.0418
    112 H           4.0196    7.2259   -0.7108 H       2  LIG2        0.0633
    113 C           3.2393    8.0817    0.9684 C.ar    2  LIG2       -0.0375
    114 H           3.3783    7.3414    1.5476 H       2  LIG2        0.0637
    115 C          -0.6224    8.0355    1.1931 C.3     1  LIG1       -0.0418
    116 H          -0.2334    7.3560    1.7833 H       1  LIG1        0.0252
    117 H          -0.6451    8.8974    1.6591 H       1  LIG1        0.0252
    118 H          -0.0776    8.1157    0.3837 H       1  LIG1        0.0252
    119 C          -2.0180    7.6319    0.8186 C.3     1  LIG1        0.0414
    120 H          -2.5338    7.4435    1.6426 H       1  LIG1        0.0554
    121 H          -2.4592    8.3844    0.3508 H       1  LIG1        0.0554
    122 C           2.8008   14.0105   -0.3435 C.3     2  LIG2       -0.0418
    123 H           1.8333   14.1284   -0.4495 H       2  LIG2        0.0252
    124 H           3.2033   14.8554   -0.0548 H       2  LIG2        0.0252
    125 H           2.9727   13.3188    0.3307 H       2  LIG2        0.0252
    126 C           3.3998   13.5911   -1.6536 C.3     2  LIG2        0.0414
    127 H           3.3715   14.3582   -2.2803 H       2  LIG2        0.0554
    128 H           4.3506   13.3540   -1.5111 H       2  LIG2        0.0554
    129 H           2.3941    2.5043    3.0879 H       1  LIG1        0.1564
    130 H           4.4839    2.7960    3.1427 H       1  LIG1        0.1511
    131 H           3.6647    6.1148    7.2356 H       1  LIG1        0.1511
    132 H           6.1898   11.9621    4.9882 H       2  LIG2        0.1564
    133 H           4.8836   12.2052    6.5778 H       2  LIG2        0.1511
    134 H           1.1098    8.9473    4.8237 H       2  LIG2        0.1511
    135 H           2.4879    8.5704    3.2231 H       2  LIG2        0.1564
    136 H          -1.8195    5.6893    0.3472 H       1  LIG1        0.2094
    137 H           2.8164   11.6460   -1.9003 H       2  LIG2        0.2094
    138 H           1.5297    5.6893    7.2411 H       1  LIG1        0.1564
@<TRIPOS>BOND
     1   127   126    1
     2     6   137    1
     3     6   126    1
     4   110   109    1
     5   126   128    1
     6   126   122    1
     7   109    18   ar
     8   109   111   ar
     9   112   111    1
    10    18   107   ar
    11   123   122    1
    12   111   113   ar
    13   122   124    1
    14   122   125    1
    15    70    69    1
    16     5   136    1
    17     5   119    1
    18    72    71    1
    19   121   119    1
    20   118   115    1
    21    33    30    1
    22   107   108    1
    23   107   106   ar
    24    69    71   ar
    25    69    13   ar
    26    31    30    1
    27    32    30    1
    28    71    73   ar
    29    24    23    1
    30   119   115    1
    31   119   120    1
    32    30    29    1
    33   113   106   ar
    34   113   114    1
    35     7    23   ar
    36     7    25   ar
    37    23    21   ar
    38   115   117    1
    39   115   116    1
    40    40    39    1
    41   106    17    1
    42    26    25    1
    43    25    27   ar
    44     1    28    2
    45    13    67   ar
    46    21    22    1
    47    21    19   ar
    48    73    74    1
    49    73    75   ar
    50    27    19   ar
    51    27     8    1
    52    39    41   ar
    53    39    38   ar
    54    42    41    1
    55    28     9   am
    56    28     8   am
    57    19    20    1
    58    29     9    1
    59    29    38    1
    60    29    34    1
    61     9   130    1
    62    41    43   ar
    63     8   129    1
    64     4   105    2
    65    17   135    1
    66    17   105   am
    67    67    75   ar
    68    67    68    1
    69    37    34    1
    70    38    46   ar
    71    36    34    1
    72    75    14    1
    73    34    35    1
    74    64    63    1
    75   105    16   am
    76   102   101    1
    77    66    65    1
    78     3    76    2
    79    43    44    1
    80    43    45   ar
    81    46    47    1
    82    46    45   ar
    83    63    65   ar
    84    63    61   ar
    85    14    76   am
    86    14   132    1
    87   104   101    1
    88    16   134    1
    89    16    96    1
    90    65    58   ar
    91   101   103    1
    92   101    96    1
    93     2    57    2
    94    45    48    1
    95    76    15   am
    96    62    61    1
    97    61    12   ar
    98    96    93    1
    99    96    97    1
   100    92    91    1
   101    91    93   ar
   102    91    89   ar
   103    93    94   ar
   104    81    78    1
   105    57    11   am
   106    57    10   am
   107    90    89    1
   108    54    53    1
   109    89    87   ar
   110    58    11    1
   111    58    59   ar
   112    94    95    1
   113    94    86   ar
   114    15   133    1
   115    15    77    1
   116    48    53    1
   117    48    10    1
   118    48    49    1
   119    87    86   ar
   120    87    88    1
   121    86    77    1
   122    55    53    1
   123    11   138    1
   124    53    56    1
   125    10   131    1
   126    12    59   ar
   127    98    97    1
   128    78    77    1
   129    78    79    1
   130    78    80    1
   131    97   100    1
   132    97    99    1
   133    77    82    1
   134    59    60    1
   135    51    49    1
   136    52    49    1
   137    49    50    1
   138    82    83    1
   139    82    85    1
   140    82    84    1
