@<TRIPOS>MOLECULE
?
 54 56 0 0 0
SMALL
GASTEIGER

@<TRIPOS>ATOM
      1 O           3.9237    6.7386    5.5419 O.3     1  LIG1       -0.3751
      2 H           4.1465    7.4714    5.1975 H       1  LIG1        0.2114
      3 C           4.5580    5.3469    3.5900 C.ar    1  LIG1        0.0005
      4 C           3.3840    4.9607    2.9674 C.ar    1  LIG1       -0.0546
      5 H           2.5690    4.9180    3.4533 H       1  LIG1        0.0622
      6 C           3.4206    4.6363    1.6151 C.ar    1  LIG1       -0.0614
      7 H           2.6185    4.3857    1.1719 H       1  LIG1        0.0618
      8 C           4.6178    4.6746    0.9025 C.ar    1  LIG1       -0.0612
      9 H           4.6256    4.4375   -0.0168 H       1  LIG1        0.0618
     10 C           5.8050    5.0574    1.5277 C.ar    1  LIG1       -0.0536
     11 H           6.6229    5.0834    1.0453 H       1  LIG1        0.0624
     12 C           5.7606    5.3999    2.8752 C.ar    1  LIG1       -0.0110
     13 C           6.8188    5.8789    3.7809 C.ar    1  LIG1       -0.0110
     14 C           8.1633    6.1445    3.5396 C.ar    1  LIG1       -0.0536
     15 H           8.5537    5.9605    2.6933 H       1  LIG1        0.0624
     16 C           8.9197    6.6876    4.5750 C.ar    1  LIG1       -0.0612
     17 H           9.8378    6.8854    4.4299 H       1  LIG1        0.0618
     18 C           8.3502    6.9450    5.8176 C.ar    1  LIG1       -0.0614
     19 H           8.8825    7.3286    6.5052 H       1  LIG1        0.0618
     20 C           7.0072    6.6487    6.0728 C.ar    1  LIG1       -0.0546
     21 H           6.6232    6.8112    6.9264 H       1  LIG1        0.0622
     22 C           6.2550    6.1119    5.0433 C.ar    1  LIG1        0.0005
     23 C           4.7823    5.7078    5.0623 C.3     1  LIG1        0.1424
     24 C           4.5280    4.4619    5.9084 C.ar    1  LIG1       -0.0066
     25 C           5.4889    3.4581    5.9864 C.ar    1  LIG1       -0.0552
     26 H           6.3202    3.5592    5.5393 H       1  LIG1        0.0621
     27 C           5.2289    2.3086    6.7201 C.ar    1  LIG1       -0.0608
     28 H           5.8854    1.6241    6.7738 H       1  LIG1        0.0618
     29 C           4.0182    2.1555    7.3727 C.ar    1  LIG1       -0.0540
     30 H           3.8632    1.3740    7.8893 H       1  LIG1        0.0624
     31 C           3.0190    3.1293    7.2856 C.ar    1  LIG1       -0.0175
     32 C           3.3029    4.2878    6.5451 C.ar    1  LIG1       -0.0475
     33 H           2.6437    4.9685    6.4778 H       1  LIG1        0.0627
     34 O           0.8927    2.1279    2.2896 O.3     2  LIG2       -0.3752
     35 O          -0.7149    1.3495    4.4786 O.3     2  LIG2       -0.3752
     36 C           1.4715    1.8032    3.5557 C.3     2  LIG2        0.0711
     37 H           2.2943    2.3367    3.6898 H       2  LIG2        0.0583
     38 H           1.7210    0.8450    3.5693 H       2  LIG2        0.0583
     39 C           0.5016    2.0858    4.6728 C.3     2  LIG2        0.0711
     40 H           0.9088    1.8309    5.5378 H       2  LIG2        0.0583
     41 H           0.3018    3.0553    4.7015 H       2  LIG2        0.0583
     42 C          -1.2889    1.6586    3.2050 C.3     2  LIG2        0.0711
     43 H          -1.5449    2.6150    3.1801 H       2  LIG2        0.0583
     44 H          -2.1066    1.1176    3.0687 H       2  LIG2        0.0583
     45 C          -0.3049    1.3699    2.1036 C.3     2  LIG2        0.0711
     46 H          -0.0878    0.4043    2.0982 H       2  LIG2        0.0583
     47 H          -0.7099    1.5994    1.2299 H       2  LIG2        0.0583
     48 O           4.9546    1.1758    0.0703 O.3     1  LIG1       -0.3752
     49 C           3.8177    0.9865    0.9136 C.3     1  LIG1        0.0711
     50 H           3.4034    1.8637    1.1094 H       1  LIG1        0.0583
     51 H           4.1068    0.5857    1.7717 H       1  LIG1        0.0583
     52 C           5.5213   -0.0872   -0.2573 C.3     1  LIG1        0.0711
     53 H           5.8591   -0.5194    0.5661 H       1  LIG1        0.0583
     54 H           6.2877    0.0451   -0.8698 H       1  LIG1        0.0583
@<TRIPOS>BOND
     1    54    52    1
     2    52    48    1
     3    52    53    1
     4     9     8    1
     5    48    49    1
     6     8    10   ar
     7     8     6   ar
     8    49    50    1
     9    49    51    1
    10    11    10    1
    11     7     6    1
    12    47    45    1
    13    10    12   ar
    14     6     4   ar
    15    46    45    1
    16    45    34    1
    17    45    42    1
    18    34    36    1
    19    15    14    1
    20    12     3   ar
    21    12    13    1
    22     4     5    1
    23     4     3   ar
    24    44    42    1
    25    43    42    1
    26    42    35    1
    27    14    13   ar
    28    14    16   ar
    29    36    38    1
    30    36    37    1
    31    36    39    1
    32     3    23    1
    33    13    22   ar
    34    17    16    1
    35    35    39    1
    36    16    18   ar
    37    39    41    1
    38    39    40    1
    39    22    23    1
    40    22    20   ar
    41    23     1    1
    42    23    24    1
    43     2     1    1
    44    26    25    1
    45    18    20   ar
    46    18    19    1
    47    24    25   ar
    48    24    32   ar
    49    25    27   ar
    50    20    21    1
    51    33    32    1
    52    32    31   ar
    53    27    28    1
    54    27    29   ar
    55    31    29   ar
    56    29    30    1
