@<TRIPOS>MOLECULE
?
 59 59 0 0 0
SMALL
GASTEIGER

@<TRIPOS>ATOM
      1 C           8.1019   16.1490   20.9160 C.2     1  LIG1        0.3370
      2 C           7.0457   17.1719   20.7023 C.ar    1  LIG1        0.0657
      3 C           6.1353   16.9573   19.6811 C.ar    1  LIG1       -0.0057
      4 H           6.1978   16.1826   19.1351 H       1  LIG1        0.0662
      5 C           5.1291   17.8903   19.4672 C.ar    1  LIG1        0.1247
      6 C           5.0391   19.0167   20.2807 C.ar    1  LIG1        0.0218
      7 H           4.3438   19.6489   20.1419 H       1  LIG1        0.0691
      8 C           5.9627   19.2143   21.2916 C.ar    1  LIG1        0.1243
      9 C           6.9895   18.2976   21.5112 C.ar    1  LIG1       -0.0058
     10 H           7.6328   18.4396   22.1963 H       1  LIG1        0.0662
     11 C           6.7204   20.6244   23.0714 C.3     1  LIG1        0.0788
     12 H           6.6625   19.9206   23.7513 H       1  LIG1        0.0660
     13 H           6.5119   21.4907   23.4797 H       1  LIG1        0.0660
     14 H           7.6274   20.6472   22.7022 H       1  LIG1        0.0660
     15 C           4.2978   16.6495   17.6048 C.3     1  LIG1        0.0896
     16 H           4.2402   15.8070   18.1217 H       1  LIG1        0.0696
     17 H           5.1709   16.6705   17.1393 H       1  LIG1        0.0696
     18 C           3.1801   16.7138   16.6028 C.3     1  LIG1       -0.0185
     19 H           3.1988   17.5911   16.1438 H       1  LIG1        0.0298
     20 H           2.3120   16.6310   17.0710 H       1  LIG1        0.0298
     21 C           3.3087   15.6046   15.5768 C.3     1  LIG1       -0.0469
     22 H           3.3420   14.7369   16.0511 H       1  LIG1        0.0267
     23 H           4.1668   15.7153   15.0963 H       1  LIG1        0.0267
     24 C           2.1799   15.5581   14.5540 C.3     1  LIG1       -0.0185
     25 H           1.3090   15.4654   15.0150 H       1  LIG1        0.0298
     26 H           2.1664   16.3963   14.0276 H       1  LIG1        0.0298
     27 C           2.4049   14.3840   13.6441 C.3     1  LIG1        0.0896
     28 H           3.2664   14.4926   13.1688 H       1  LIG1        0.0696
     29 H           2.4500   13.5519   14.1789 H       1  LIG1        0.0696
     30 C           3.2329   10.0214   11.2511 C.2     1  LIG1        0.3370
     31 C           2.2310   11.1050   11.0970 C.ar    1  LIG1        0.0657
     32 C           2.3043   12.1749   11.9715 C.ar    1  LIG1       -0.0057
     33 H           2.9861   12.2118   12.6320 H       1  LIG1        0.0662
     34 C           1.3627   13.1969   11.8690 C.ar    1  LIG1        0.1247
     35 C           0.3823   13.1375   10.8950 C.ar    1  LIG1        0.0218
     36 H          -0.2658   13.8291   10.8330 H       1  LIG1        0.0691
     37 C           0.3414   12.0693   10.0057 C.ar    1  LIG1        0.1243
     38 C           1.2648   11.0319   10.0968 C.ar    1  LIG1       -0.0058
     39 H           1.2372   10.2975    9.4960 H       1  LIG1        0.0662
     40 C          -0.7314   11.0883    8.1043 C.3     1  LIG1        0.0788
     41 H           0.1169   11.0311    7.6173 H       1  LIG1        0.0660
     42 H          -1.4578   11.2804    7.4741 H       1  LIG1        0.0660
     43 H          -0.9072   10.2369    8.5558 H       1  LIG1        0.0660
     44 C           6.9623   10.9775   15.2248 C.3     1  LIG1       -0.0090
     45 H           6.8874   10.3977   14.4766 H       1  LIG1        0.0355
     46 C           6.1462   12.6815   16.5033 C.2     1  LIG1       -0.0657
     47 H           5.4779   13.3335   16.6741 H       1  LIG1        0.0614
     48 C           6.0160   11.8944   15.4655 C.2     1  LIG1       -0.0798
     49 H           5.2629   11.9727   14.8913 H       1  LIG1        0.0575
     50 O           8.1680   15.1799   20.1109 O.2     1  LIG1       -0.2451
     51 O           8.8843   16.2889   21.9123 O.3     1  LIG1       -0.4771
     52 H           9.4341   15.6541   21.9279 H       1  LIG1        0.2954
     53 O           4.1835   17.7741   18.4854 O.3     1  LIG1       -0.4918
     54 O           5.7890   20.3544   22.0273 O.3     1  LIG1       -0.4950
     55 O           4.0258   10.1079   12.2483 O.3     1  LIG1       -0.4771
     56 H           4.5495    9.4508   12.2465 H       1  LIG1        0.2954
     57 O           3.2748    9.0740   10.4212 O.2     1  LIG1       -0.2451
     58 O           1.3373   14.2888   12.6927 O.3     1  LIG1       -0.4918
     59 O          -0.6536   12.1325    9.0727 O.3     1  LIG1       -0.4950
@<TRIPOS>BOND
     1    42    40    1
     2    41    40    1
     3    40    43    1
     4    40    59    1
     5    59    37    1
     6    39    38    1
     7    37    38   ar
     8    37    35   ar
     9    38    31   ar
    10    57    30    2
    11    36    35    1
    12    35    34   ar
    13    31    30    1
    14    31    32   ar
    15    30    55    1
    16    34    32   ar
    17    34    58    1
    18    32    33    1
    19    56    55    1
    20    58    27    1
    21    28    27    1
    22    27    29    1
    23    27    24    1
    24    26    24    1
    25    45    44    1
    26    24    25    1
    27    24    21    1
    28    49    48    1
    29    23    21    1
    30    44    48    1
    31    48    46    2
    32    21    22    1
    33    21    18    1
    34    19    18    1
    35    46    47    1
    36    18    20    1
    37    18    15    1
    38    17    15    1
    39    15    16    1
    40    15    53    1
    41    53     5    1
    42     4     3    1
    43     5     3   ar
    44     5     6   ar
    45     3     2   ar
    46    50     1    2
    47     7     6    1
    48     6     8   ar
    49     2     1    1
    50     2     9   ar
    51     1    51    1
    52     8     9   ar
    53     8    54    1
    54     9    10    1
    55    51    52    1
    56    54    11    1
    57    14    11    1
    58    11    13    1
    59    11    12    1
