@<TRIPOS>MOLECULE
4-Aminopyridinium 3-hydroxybenzoate
 29 29 0 0 0
SMALL
GASTEIGER

@<TRIPOS>ATOM
      1 O           3.2032   14.4615    8.1613 O.co2   1  LIG1       -0.2406
      2 O           0.7324   10.3448    6.8496 O.3     1  LIG1       -0.5067
      3 O           3.4530   14.3166   10.3654 O.co2   1  LIG1       -0.2406
      4 N           6.1903   10.0768    5.2008 N.pl3   2  LIG2       -0.3411
      5 C           0.7312   10.2508    9.2678 C.ar    1  LIG1       -0.0201
      6 C           2.2667   12.5735    9.2787 C.ar    1  LIG1        0.0666
      7 C           1.8673   12.0055    8.0764 C.ar    1  LIG1       -0.0061
      8 C           1.1032   10.8440    8.0670 C.ar    1  LIG1        0.1176
      9 C           5.8048   10.7594    4.1087 C.3     2  LIG2        0.0623
     10 C           5.8579   10.5238    6.4276 C.2     2  LIG2       -0.0084
     11 C           1.1345   10.8211   10.4649 C.ar    1  LIG1       -0.0575
     12 C           4.7300   12.4152    5.4710 C.2     2  LIG2        0.0236
     13 C           5.1290   11.6610    6.6006 C.2     2  LIG2       -0.0278
     14 N           4.0559   13.5569    5.6047 N.pl3   2  LIG2       -0.3581
     15 C           3.0366   13.8673    9.2738 C.2     1  LIG1        0.3867
     16 C           5.0918   11.9148    4.1992 C.2     2  LIG2       -0.0413
     17 C           1.9086   11.9714   10.4805 C.ar    1  LIG1       -0.0474
     18 H           2.1143   12.4101    7.2541 H       1  LIG1        0.0662
     19 H           4.9246   11.9601    7.4780 H       2  LIG2        0.0648
     20 H           2.1860   12.3820   11.3073 H       1  LIG1        0.0626
     21 H           6.1850    9.9953    7.1638 H       2  LIG2        0.0779
     22 H           6.0672   10.3699    3.2742 H       2  LIG2        0.0564
     23 H           0.8506   10.4057   11.3063 H       1  LIG1        0.0619
     24 H           0.1941    9.4341    9.2586 H       1  LIG1        0.0654
     25 H           4.8357   12.3961    3.4228 H       2  LIG2        0.0609
     26 H           3.8051   13.8393    6.4331 H       2  LIG2        0.1423
     27 H           0.2691    9.6042    6.9279 H       1  LIG1        0.2921
     28 H           6.7084    9.2807    5.0760 H       2  LIG2        0.1462
     29 H           3.8742   14.0349    4.9124 H       2  LIG2        0.1423
@<TRIPOS>BOND
     1    22     9    1
     2    25    16    1
     3     9    16    1
     4     9     4    1
     5    16    12    2
     6    29    14    1
     7    28     4    1
     8     4    10    1
     9    12    14    1
    10    12    13    1
    11    14    26    1
    12    10    13    2
    13    10    21    1
    14    13    19    1
    15     2    27    1
    16     2     8    1
    17    18     7    1
    18     8     7   ar
    19     8     5   ar
    20     7     6   ar
    21     1    15   ar
    22    24     5    1
    23     5    11   ar
    24    15     6    1
    25    15     3   ar
    26     6    17   ar
    27    11    17   ar
    28    11    23    1
    29    17    20    1
