@<TRIPOS>MOLECULE
3-Aminopyridinium 4-hydroxybenzoate
 29 29 0 0 0
SMALL
GASTEIGER

@<TRIPOS>ATOM
      1 O           7.6623   10.4244    3.2195 O.co2   1  LIG1       -0.2406
      2 O           2.8774    6.3393    4.2548 O.3     1  LIG1       -0.5068
      3 O           7.8346   10.1033    5.4039 O.co2   1  LIG1       -0.2406
      4 C           6.1083    8.9477    4.2616 C.ar    1  LIG1        0.0634
      5 C           5.5744    8.4390    5.4495 C.ar    1  LIG1       -0.0442
      6 H           5.9519    8.7017    6.2814 H       1  LIG1        0.0627
      7 N           9.2218    6.4641    4.9742 N.pl3   2  LIG2       -0.3254
      8 C           9.0575    5.8124    6.1277 C.2     2  LIG2        0.0106
      9 H           9.6816    5.9430    6.8319 H       2  LIG2        0.0797
     10 C           3.9399    7.1764    4.2199 C.ar    1  LIG1        0.1169
     11 C           4.4712    7.6632    3.0256 C.ar    1  LIG1       -0.0194
     12 H           4.0983    7.3934    2.1940 H       1  LIG1        0.0654
     13 N           7.8516    4.2495    7.4766 N.pl3   2  LIG2       -0.3598
     14 C           7.2690    9.8870    4.2903 C.2     1  LIG1        0.3865
     15 C           5.5415    8.5393    3.0528 C.ar    1  LIG1       -0.0442
     16 H           5.8963    8.8683    2.2355 H       1  LIG1        0.0627
     17 C           7.9813    4.9404    6.3131 C.2     2  LIG2        0.0231
     18 C           7.0925    4.7835    5.2352 C.3     2  LIG2        0.0289
     19 H           6.3508    4.1947    5.3139 H       2  LIG2        0.0414
     20 C           4.5079    7.5623    5.4357 C.ar    1  LIG1       -0.0194
     21 H           4.1613    7.2223    6.2520 H       1  LIG1        0.0654
     22 C           7.2953    5.4833    4.0609 C.2     2  LIG2       -0.0607
     23 H           6.6883    5.3807    3.3365 H       2  LIG2        0.0591
     24 C           8.3785    6.3309    3.9382 C.2     2  LIG2       -0.0100
     25 H           8.5245    6.8131    3.1331 H       2  LIG2        0.0778
     26 H           8.3198    4.5387    8.1768 H       2  LIG2        0.1421
     27 H           7.0613    3.8497    7.6283 H       2  LIG2        0.1421
     28 H           9.9872    7.0276    4.8767 H       2  LIG2        0.1511
     29 H           2.5953    6.1947    3.4114 H       1  LIG1        0.2921
@<TRIPOS>BOND
     1    12    11    1
     2    16    15    1
     3    11    15   ar
     4    11    10   ar
     5    15     4   ar
     6    25    24    1
     7     1    14   ar
     8    23    22    1
     9    29     2    1
    10    24    22    2
    11    24     7    1
    12    22    18    1
    13    10     2    1
    14    10    20   ar
    15     4    14    1
    16     4     5   ar
    17    14     3   ar
    18    28     7    1
    19     7     8    1
    20    18    19    1
    21    18    17    1
    22    20     5   ar
    23    20    21    1
    24     5     6    1
    25     8    17    2
    26     8     9    1
    27    17    13    1
    28    13    27    1
    29    13    26    1
