@<TRIPOS>MOLECULE
?
 35 36 0 0 0
SMALL
GASTEIGER

@<TRIPOS>ATOM
      1 N           5.2914    6.5361    7.9398 N.am    1  LIG1       -0.2025
      2 C           5.4403    4.8122    5.7251 C.2     1  LIG1        0.0038
      3 C           4.7425    4.3951    6.8764 C.2     1  LIG1        0.0458
      4 C           6.0728    6.0694    5.6592 C.2     1  LIG1        0.0279
      5 C           4.6731    5.2792    8.0593 C.2     1  LIG1        0.2581
      6 O           4.1147    4.9636    9.0854 O.2     1  LIG1       -0.2692
      7 C           4.1304    3.1684    6.9054 C.2     1  LIG1       -0.0483
      8 H           3.6664    2.9029    7.6666 H       1  LIG1        0.0625
      9 C           6.7473    6.4559    4.5276 C.3     1  LIG1        0.0048
     10 H           7.1595    7.2888    4.4952 H       1  LIG1        0.0363
     11 O           6.5482    8.0648    6.8298 O.2     1  LIG1       -0.2695
     12 C           6.0141    6.9823    6.8200 C.2     1  LIG1        0.2544
     13 C           5.1910    7.4510    9.0608 C.ar    1  LIG1        0.0474
     14 N           5.0222    9.2476   11.1656 N.ar    1  LIG1       -0.2631
     15 C           5.7655    7.1521   10.2699 C.ar    1  LIG1       -0.0217
     16 H           6.2180    6.3508   10.4032 H       1  LIG1        0.0651
     17 C           5.6458    8.0858   11.2830 C.ar    1  LIG1        0.0293
     18 H           6.0303    7.8825   12.1050 H       1  LIG1        0.0830
     19 C           4.5434    8.6538    8.9017 C.ar    1  LIG1       -0.0217
     20 H           4.1583    8.8851    8.0869 H       1  LIG1        0.0651
     21 C           4.4810    9.5036    9.9777 C.ar    1  LIG1        0.0293
     22 H           4.0316   10.3101    9.8693 H       1  LIG1        0.0830
     23 C           1.8176    4.5195    4.5376 C.ar    2  LIG2       -0.0019
     24 C           1.7959    3.5333    3.5101 C.ar    2  LIG2       -0.0167
     25 C           1.1477    2.2843    3.7858 C.2     2  LIG2       -0.0540
     26 H           1.1372    1.6252    3.1300 H       2  LIG2        0.0624
     27 C           0.5608    2.0432    4.9538 C.2     2  LIG2       -0.0612
     28 H           0.1399    1.2244    5.0870 H       2  LIG2        0.0618
     29 C           2.4538    5.7616    4.3104 C.ar    2  LIG2       -0.0090
     30 C           2.4037    3.8252    2.2956 C.ar    2  LIG2       -0.0540
     31 H           2.3911    3.1922    1.6141 H       2  LIG2        0.0624
     32 C           3.0196    5.0288    2.0850 C.ar    2  LIG2       -0.0606
     33 H           3.4233    5.2024    1.2661 H       2  LIG2        0.0618
     34 C           3.0493    5.9878    3.0753 C.ar    2  LIG2       -0.0534
     35 H           3.4734    6.7986    2.9132 H       2  LIG2        0.0624
@<TRIPOS>BOND
     1    33    32    1
     2    31    30    1
     3    32    30   ar
     4    32    34   ar
     5    30    24   ar
     6    35    34    1
     7    34    29   ar
     8    26    25    1
     9    24    25    1
    10    24    23   ar
    11    25    27    2
    12    29    23   ar
    13    10     9    1
    14     9     4    1
    15    27    28    1
    16     4     2    2
    17     4    12    1
    18     2     3    1
    19    12    11    2
    20    12     1   am
    21     3     7    2
    22     3     5    1
    23     7     8    1
    24     1     5   am
    25     1    13    1
    26     5     6    2
    27    20    19    1
    28    19    13   ar
    29    19    21   ar
    30    13    15   ar
    31    22    21    1
    32    21    14   ar
    33    15    16    1
    34    15    17   ar
    35    14    17   ar
    36    17    18    1
