@<TRIPOS>MOLECULE
?
 32 33 0 0 0
SMALL
GASTEIGER

@<TRIPOS>ATOM
      1 O          -3.0584   10.2226    7.5918 O.3     1  LIG1       -0.5062
      2 H          -2.8572   10.6872    8.3861 H       1  LIG1        0.2922
      3 C          -2.0830    9.3526    7.2515 C.ar    1  LIG1        0.1245
      4 C          -0.9388    9.1725    7.9803 C.ar    1  LIG1       -0.0196
      5 H          -0.8199    9.6397    8.7758 H       1  LIG1        0.0654
      6 C           0.0547    8.2912    7.5372 C.ar    1  LIG1       -0.0577
      7 H           0.8272    8.1791    8.0429 H       1  LIG1        0.0619
      8 C          -0.0945    7.5967    6.3809 C.ar    1  LIG1       -0.0538
      9 H           0.5818    7.0283    6.0919 H       1  LIG1        0.0624
     10 C          -1.4793    7.0122    4.4154 C.ar    1  LIG1       -0.0539
     11 H          -0.8202    6.4290    4.1134 H       1  LIG1        0.0624
     12 C          -2.6218    7.1524    3.6985 C.ar    1  LIG1       -0.0612
     13 H          -2.7350    6.6732    2.9098 H       1  LIG1        0.0618
     14 C          -3.6255    8.0134    4.1373 C.ar    1  LIG1       -0.0611
     15 H          -4.4102    8.0960    3.6449 H       1  LIG1        0.0618
     16 C          -3.4665    8.7364    5.2828 C.ar    1  LIG1       -0.0505
     17 H          -4.1411    9.3123    5.5618 H       1  LIG1        0.0625
     18 C          -2.2886    8.6185    6.0465 C.ar    1  LIG1        0.0236
     19 C          -1.2704    7.7344    5.6153 C.ar    1  LIG1       -0.0144
     20 N           0.2725   11.4835    2.7057 N.ar    2  LIG2       -0.2632
     21 C           0.3049   12.7779    3.0082 C.ar    2  LIG2        0.0278
     22 H           0.3542   13.3918    2.3123 H       2  LIG2        0.0829
     23 C           0.2702   13.2548    4.3039 C.ar    2  LIG2       -0.0404
     24 H           0.2869   14.1699    4.4632 H       2  LIG2        0.0635
     25 C           0.2093   12.3707    5.3642 C.ar    2  LIG2       -0.0442
     26 C           0.2066   11.0247    5.0490 C.ar    2  LIG2       -0.0404
     27 H           0.1923   10.3851    5.7247 H       2  LIG2        0.0635
     28 C           0.2246   10.6364    3.7318 C.ar    2  LIG2        0.0278
     29 H           0.2019    9.7253    3.5449 H       2  LIG2        0.0829
     30 C           0.0924   12.8249    6.8031 C.3     2  LIG2       -0.0236
     31 H          -0.7408   12.4928    7.1710 H       2  LIG2        0.0316
     32 H           0.0577   13.7947    6.8241 H       2  LIG2        0.0316
@<TRIPOS>BOND
     1    22    21    1
     2    20    21   ar
     3    20    28   ar
     4    13    12    1
     5    21    23   ar
     6    29    28    1
     7    15    14    1
     8    12    14   ar
     9    12    10   ar
    10    28    26   ar
    11    11    10    1
    12    14    16   ar
    13    23    24    1
    14    23    25   ar
    15    10    19   ar
    16    26    25   ar
    17    26    27    1
    18    16    17    1
    19    16    18   ar
    20    25    30    1
    21    19    18   ar
    22    19     8   ar
    23    18     3   ar
    24     9     8    1
    25     8     6   ar
    26    30    32    1
    27    30    31    1
    28     3     1    1
    29     3     4   ar
    30     6     4   ar
    31     6     7    1
    32     1     2    1
    33     4     5    1
