@<TRIPOS>MOLECULE
?
 162 168 0 0 0
SMALL
GASTEIGER

@<TRIPOS>ATOM
      1 C          26.0601   10.5179   21.2673 C.ar    1  LIG1       -0.0303
      2 C          26.6750   10.8361   20.0622 C.ar    1  LIG1       -0.0571
      3 H          27.3716   11.4513   20.0432 H       1  LIG1        0.0621
      4 C          26.2482   10.2348   18.8842 C.ar    1  LIG1       -0.0615
      5 H          26.6598   10.4465   18.0762 H       1  LIG1        0.0618
      6 C          25.2073    9.3139   18.9113 C.ar    1  LIG1       -0.0617
      7 H          24.9216    8.9117   18.1229 H       1  LIG1        0.0618
      8 C          24.5903    8.9969   20.1179 C.ar    1  LIG1       -0.0615
      9 H          23.8944    8.3805   20.1335 H       1  LIG1        0.0618
     10 C          25.0171    9.5983   21.2947 C.ar    1  LIG1       -0.0571
     11 H          24.6062    9.3853   22.1004 H       1  LIG1        0.0621
     12 O          26.5542   13.8593   22.5707 O.2     1  LIG1       -0.2702
     13 O          32.5963   12.0414   22.1151 O.2     1  LIG1       -0.2702
     14 O          31.1923   18.1567   22.8060 O.2     1  LIG1       -0.2702
     15 C          28.9326   13.9521   22.4895 C.ar    1  LIG1        0.0381
     16 C          30.1507   13.3256   22.3637 C.ar    1  LIG1       -0.0375
     17 H          30.1731   12.3997   22.2903 H       1  LIG1        0.0633
     18 C          31.3500   14.0347   22.3410 C.ar    1  LIG1        0.0381
     19 C          31.2986   15.4167   22.4369 C.ar    1  LIG1       -0.0375
     20 H          32.0885   15.9078   22.4210 H       1  LIG1        0.0633
     21 C          30.0776   16.0832   22.5555 C.ar    1  LIG1        0.0381
     22 C          28.9123   15.3377   22.5916 C.ar    1  LIG1       -0.0375
     23 H          28.0956   15.7750   22.6856 H       1  LIG1        0.0633
     24 C          27.6197   13.2241   22.5122 C.2     1  LIG1        0.2444
     25 C          32.6231   13.2555   22.2112 C.2     1  LIG1        0.2444
     26 C          30.1326   17.5917   22.6482 C.2     1  LIG1        0.2444
     27 C          26.4515   11.0855   22.5822 C.3     1  LIG1        0.0371
     28 H          25.7223   11.6317   22.9159 H       1  LIG1        0.0512
     29 H          26.5853   10.3575   23.2084 H       1  LIG1        0.0512
     30 C          35.0745   13.2542   22.2003 C.3     1  LIG1        0.0371
     31 H          34.9515   12.3171   22.4210 H       1  LIG1        0.0512
     32 H          35.6438   13.6413   22.8847 H       1  LIG1        0.0512
     33 C          35.7776   13.3369   20.9056 C.ar    1  LIG1       -0.0303
     34 C          37.1636   13.2392   20.9302 C.ar    1  LIG1       -0.0571
     35 H          37.6091   13.1364   21.7394 H       1  LIG1        0.0621
     36 C          37.8855   13.2943   19.7444 C.ar    1  LIG1       -0.0615
     37 H          38.8135   13.2279   19.7600 H       1  LIG1        0.0618
     38 C          37.2214   13.4471   18.5325 C.ar    1  LIG1       -0.0617
     39 H          37.7053   13.4835   17.7401 H       1  LIG1        0.0618
     40 C          35.8355   13.5449   18.5079 C.ar    1  LIG1       -0.0615
     41 H          35.3913   13.6476   17.6965 H       1  LIG1        0.0618
     42 C          35.1129   13.4910   19.6943 C.ar    1  LIG1       -0.0571
     43 H          34.1855   13.5561   19.6791 H       1  LIG1        0.0621
     44 C          28.9101   19.7090   22.5866 C.3     1  LIG1        0.0371
     45 H          29.7724   20.0573   22.8661 H       1  LIG1        0.0512
     46 H          28.2548   19.9872   23.2458 H       1  LIG1        0.0512
     47 C          28.5586   20.3104   21.2922 C.ar    1  LIG1       -0.0303
     48 C          27.9828   21.5758   21.3015 C.ar    1  LIG1       -0.0571
     49 H          27.8092   22.0018   22.1098 H       1  LIG1        0.0621
     50 C          27.6652   22.2035   20.1027 C.ar    1  LIG1       -0.0615
     51 H          27.2797   23.0492   20.1086 H       1  LIG1        0.0618
     52 C          27.9235   21.5658   18.8945 C.ar    1  LIG1       -0.0617
     53 H          27.7108   21.9868   18.0918 H       1  LIG1        0.0618
     54 C          28.5000   20.3016   18.8851 C.ar    1  LIG1       -0.0615
     55 H          28.6721   19.8757   18.0762 H       1  LIG1        0.0618
     56 C          28.8175   19.6740   20.0840 C.ar    1  LIG1       -0.0571
     57 H          29.2024   18.8270   20.0774 H       1  LIG1        0.0621
     58 O          29.7507    9.9667   22.2206 O.co2   2  LIG2       -0.2406
     59 O          31.9091    9.4881   22.2147 O.co2   2  LIG2       -0.2406
     60 O          33.4716    4.8424   22.2869 O.co2   2  LIG2       -0.2406
     61 O          31.9880    3.2174   22.4316 O.co2   2  LIG2       -0.2406
     62 O          27.1654    4.2034   22.5533 O.co2   2  LIG2       -0.2406
     63 O          26.5166    6.2895   22.7067 O.co2   2  LIG2       -0.2406
     64 C          30.4067    7.7152   22.3342 C.ar    2  LIG2        0.0647
     65 C          31.4317    6.7969   22.3248 C.ar    2  LIG2       -0.0335
     66 H          32.3084    7.1026   22.2716 H       2  LIG2        0.0634
     67 C          31.1959    5.4162   22.3918 C.ar    2  LIG2        0.0647
     68 C          29.8830    4.9614   22.4708 C.ar    2  LIG2       -0.0335
     69 H          29.7181    4.0468   22.5082 H       2  LIG2        0.0634
     70 C          28.8016    5.8647   22.4951 C.ar    2  LIG2        0.0647
     71 C          29.0779    7.2279   22.4307 C.ar    2  LIG2       -0.0335
     72 H          28.3734    7.8342   22.4521 H       2  LIG2        0.0634
     73 C          30.6397    9.1711   22.2430 C.2     2  LIG2        0.3866
     74 C          32.3497    4.4653   22.3616 C.2     2  LIG2        0.3866
     75 C          27.4085    5.3736   22.5972 C.2     2  LIG2        0.3866
     76 O          33.1164    8.5070   15.4762 O.co2   3  LIG3       -0.2406
     77 O          33.7826    6.3684   15.3639 O.co2   3  LIG3       -0.2406
     78 O          28.3307    9.4567   15.4404 O.co2   3  LIG3       -0.2406
     79 O          26.7900    7.8280   15.3881 O.co2   3  LIG3       -0.2406
     80 O          28.3568    3.1948   14.9023 O.co2   3  LIG3       -0.2406
     81 O          30.5435    2.6924   15.0371 O.co2   3  LIG3       -0.2406
     82 C          31.4527    6.7906   15.3349 C.ar    3  LIG3        0.0647
     83 C          30.4241    7.6952   15.4068 C.ar    3  LIG3       -0.0335
     84 H          30.5992    8.6023   15.5117 H       3  LIG3        0.0634
     85 C          29.1279    7.2366   15.3219 C.ar    3  LIG3        0.0647
     86 C          28.8457    5.9011   15.1902 C.ar    3  LIG3       -0.0335
     87 H          27.9640    5.6066   15.1476 H       3  LIG3        0.0634
     88 C          29.8903    5.0015   15.1205 C.ar    3  LIG3        0.0647
     89 C          31.1909    5.4200   15.2083 C.ar    3  LIG3       -0.0335
     90 H          31.8889    4.8048   15.1849 H       3  LIG3        0.0634
     91 C          32.8459    7.3143   15.4000 C.2     3  LIG3        0.3866
     92 C          29.6588    3.5231   15.0168 C.2     3  LIG3        0.3866
     93 C          27.9517    8.1763   15.3953 C.2     3  LIG3        0.3866
     94 N          27.6667   11.8973   22.5362 N.am    1  LIG1       -0.3072
     95 H          28.4320   11.5064   22.5237 H       1  LIG1        0.1493
     96 N          33.7616   13.9245   22.2517 N.am    1  LIG1       -0.3072
     97 H          33.7363   14.7827   22.3090 H       1  LIG1        0.1493
     98 N          28.9781   18.2682   22.5847 N.am    1  LIG1       -0.3072
     99 H          28.2439   17.8235   22.5424 H       1  LIG1        0.1493
    100 O          26.4826   11.3223   15.4588 O.2     4  LIG4       -0.2702
    101 O          21.8553    6.9710   15.3103 O.2     4  LIG4       -0.2702
    102 O          20.4448   13.1853   14.7660 O.2     4  LIG4       -0.2702
    103 C          24.1100   11.2170   15.2817 C.ar    4  LIG4        0.0381
    104 C          24.1353    9.8226   15.3268 C.ar    4  LIG4       -0.0375
    105 H          24.9447    9.3728   15.4059 H       4  LIG4        0.0633
    106 C          22.9454    9.1072   15.2524 C.ar    4  LIG4        0.0381
    107 C          21.7135    9.7599   15.1155 C.ar    4  LIG4       -0.0375
    108 H          20.9243    9.2726   15.0480 H       4  LIG4        0.0633
    109 C          21.6911   11.1744   15.0831 C.ar    4  LIG4        0.0381
    110 C          22.8868   11.8798   15.1578 C.ar    4  LIG4       -0.0375
    111 H          22.8709   12.8094   15.1258 H       4  LIG4        0.0633
    112 C          25.4250   11.9562   15.3825 C.2     4  LIG4        0.2444
    113 C          22.8976    7.6188   15.2534 C.2     4  LIG4        0.2444
    114 C          20.4267   11.9462   14.9350 C.2     4  LIG4        0.2444
    115 C          26.5867   14.1087   15.3555 C.3     4  LIG4        0.0371
    116 H          26.4464   14.8278   14.7212 H       4  LIG4        0.0512
    117 H          27.3434   13.5900   15.0417 H       4  LIG4        0.0512
    118 C          26.9491   14.7138   16.6695 C.ar    4  LIG4       -0.0303
    119 C          26.5932   14.1475   17.8879 C.ar    4  LIG4       -0.0571
    120 H          26.1006   13.3594   17.9082 H       4  LIG4        0.0621
    121 C          26.9752   14.7589   19.0765 C.ar    4  LIG4       -0.0615
    122 H          26.7365   14.3805   19.8907 H       4  LIG4        0.0618
    123 C          27.7108   15.9379   19.0460 C.ar    4  LIG4       -0.0617
    124 H          27.9662   16.3476   19.8409 H       4  LIG4        0.0618
    125 C          28.0667   16.5042   17.8276 C.ar    4  LIG4       -0.0615
    126 H          28.5593   17.2922   17.8086 H       4  LIG4        0.0618
    127 C          27.6855   15.8915   16.6393 C.ar    4  LIG4       -0.0571
    128 H          27.9242   16.2699   15.8229 H       4  LIG4        0.0621
    129 C          24.2185    5.5390   15.2356 C.3     4  LIG4        0.0371
    130 H          24.9100    5.2934   14.6029 H       4  LIG4        0.0512
    131 H          23.3852    5.1556   14.9204 H       4  LIG4        0.0512
    132 C          24.5505    4.9288   16.5649 C.ar    4  LIG4       -0.0303
    133 C          24.9961    3.6133   16.5207 C.ar    4  LIG4       -0.0571
    134 H          25.0858    3.1798   15.7016 H       4  LIG4        0.0621
    135 C          25.3071    2.9443   17.6990 C.ar    4  LIG4       -0.0615
    136 H          25.6051    2.0647   17.6685 H       4  LIG4        0.0618
    137 C          25.1719    3.5920   18.9219 C.ar    4  LIG4       -0.0617
    138 H          25.3809    3.1447   19.7102 H       4  LIG4        0.0618
    139 C          24.7263    4.9075   18.9660 C.ar    4  LIG4       -0.0615
    140 H          24.6366    5.3410   19.7849 H       4  LIG4        0.0618
    141 C          24.4160    5.5753   17.7877 C.ar    4  LIG4       -0.0571
    142 H          24.1172    6.4561   17.8179 H       4  LIG4        0.0621
    143 C          17.9738   11.9349   14.9714 C.3     4  LIG4        0.0371
    144 H          17.4342   11.4764   14.3072 H       4  LIG4        0.0512
    145 H          18.0845   12.8533   14.6776 H       4  LIG4        0.0512
    146 C          17.2302   11.9274   16.3088 C.ar    4  LIG4       -0.0303
    147 C          15.8450   12.0339   16.2764 C.ar    4  LIG4       -0.0571
    148 H          15.4008   12.0840   15.4619 H       4  LIG4        0.0621
    149 C          15.1216   12.0665   17.4634 C.ar    4  LIG4       -0.0615
    150 H          14.1950   12.1379   17.4413 H       4  LIG4        0.0618
    151 C          15.7857   11.9913   18.6828 C.ar    4  LIG4       -0.0617
    152 H          15.3017   12.0126   19.4768 H       4  LIG4        0.0618
    153 C          17.1709   11.8848   18.7152 C.ar    4  LIG4       -0.0615
    154 H          17.6136   11.8347   19.5297 H       4  LIG4        0.0618
    155 C          17.8928   11.8522   17.5282 C.ar    4  LIG4       -0.0571
    156 H          18.8194   11.7808   17.5503 H       4  LIG4        0.0621
    157 N          19.2845   11.2985   15.0383 N.am    4  LIG4       -0.3072
    158 H          19.3134   10.4465   15.1538 H       4  LIG4        0.1493
    159 N          24.0883    6.9723   15.2378 N.am    4  LIG4       -0.3072
    160 H          24.8066    7.4446   15.2285 H       4  LIG4        0.1493
    161 N          25.4294   13.2642   15.3362 N.am    4  LIG4       -0.3072
    162 H          24.6633   13.6539   15.2907 H       4  LIG4        0.1493
@<TRIPOS>BOND
     1   144   143    1
     2   130   129    1
     3   145   143    1
     4   116   115    1
     5   102   114    2
     6    80    92   ar
     7   131   129    1
     8   114   157   am
     9   114   109    1
    10   143   157    1
    11   143   146    1
    12    92    81   ar
    13    92    88    1
    14   157   158    1
    15   117   115    1
    16   108   107    1
    17   109   107   ar
    18   109   110   ar
    19   107   106   ar
    20    88    86   ar
    21    88    89   ar
    22   111   110    1
    23    87    86    1
    24   110   103   ar
    25    90    89    1
    26    86    85   ar
    27    89    82   ar
    28   160   159    1
    29   129   159    1
    30   129   132    1
    31   159   113   am
    32   106   113    1
    33   106   104   ar
    34   113   101    2
    35   103   104   ar
    36   103   112    1
    37   162   161    1
    38    85    93    1
    39    85    83   ar
    40   104   105    1
    41    82    91    1
    42    82    83   ar
    43   161   115    1
    44   161   112   am
    45   115   118    1
    46    77    91   ar
    47   112   100    2
    48    79    93   ar
    49    93    78   ar
    50    91    76   ar
    51    83    84    1
    52   148   147    1
    53   134   133    1
    54   128   127    1
    55   147   146   ar
    56   147   149   ar
    57   146   155   ar
    58   133   132   ar
    59   133   135   ar
    60   132   141   ar
    61   127   118   ar
    62   127   125   ar
    63   118   119   ar
    64   150   149    1
    65   149   151   ar
    66   155   156    1
    67   155   153   ar
    68   136   135    1
    69    41    40    1
    70   135   137   ar
    71    39    38    1
    72   141   142    1
    73   141   139   ar
    74   126   125    1
    75   125   123   ar
    76   119   120    1
    77   119   121   ar
    78     5     4    1
    79    55    54    1
    80    53    52    1
    81     7     6    1
    82    40    38   ar
    83    40    42   ar
    84    38    36   ar
    85   151   153   ar
    86   151   152    1
    87   153   154    1
    88     4     6   ar
    89     4     2   ar
    90    54    52   ar
    91    54    56   ar
    92    52    50   ar
    93     6     8   ar
    94   137   139   ar
    95   137   138    1
    96   139   140    1
    97   123   121   ar
    98   123   124    1
    99   121   122    1
   100    43    42    1
   101    42    33   ar
   102    36    37    1
   103    36    34   ar
   104     3     2    1
   105     2     1   ar
   106    57    56    1
   107    56    47   ar
   108    50    51    1
   109    50    48   ar
   110     8     9    1
   111     8    10   ar
   112    33    34   ar
   113    33    30    1
   114    34    35    1
   115     1    10   ar
   116     1    27    1
   117    47    48   ar
   118    47    44    1
   119    10    11    1
   120    48    49    1
   121    13    25    2
   122    30    96    1
   123    30    31    1
   124    30    32    1
   125    25    96   am
   126    25    18    1
   127    59    73   ar
   128    58    73   ar
   129    73    64    1
   130    96    97    1
   131    66    65    1
   132    60    74   ar
   133    17    16    1
   134    65    64   ar
   135    65    67   ar
   136    64    71   ar
   137    18    16   ar
   138    18    19   ar
   139    74    67    1
   140    74    61   ar
   141    16    15   ar
   142    67    68   ar
   143    20    19    1
   144    71    72    1
   145    71    70   ar
   146    19    21   ar
   147    68    70   ar
   148    68    69    1
   149    15    24    1
   150    15    22   ar
   151    70    75    1
   152    24    94   am
   153    24    12    2
   154    95    94    1
   155    94    27    1
   156    99    98    1
   157    62    75   ar
   158    21    22   ar
   159    21    26    1
   160    27    28    1
   161    27    29    1
   162    98    44    1
   163    98    26   am
   164    44    45    1
   165    44    46    1
   166    22    23    1
   167    75    63   ar
   168    26    14    2
