@<TRIPOS>MOLECULE
?
 42 40 0 0 0
SMALL
GASTEIGER

@<TRIPOS>ATOM
      1 H           4.7587    5.1658    4.6376 H       1  LIG1        0.1510
      2 O           9.2726    5.7678    3.2568 O.co2   2  LIG2       -0.2406
      3 O           8.8236    6.9352    5.0996 O.co2   2  LIG2       -0.2406
      4 N           4.8965    4.4216    5.1739 N.pl3   1  LIG1       -0.3268
      5 C          10.1185    2.4105    6.9410 C.ar    2  LIG2        0.0246
      6 C           9.5406    4.6800    5.3502 C.ar    2  LIG2        0.0633
      7 C           9.1995    5.8655    4.5037 C.2     2  LIG2        0.3865
      8 O           6.4803    6.8106    6.7518 O.3     3  HOH3       -0.4105
      9 C          10.0382    2.3143    5.5384 C.ar    2  LIG2       -0.0403
     10 H          10.1747    1.4745    5.1161 H       2  LIG2        0.0636
     11 C           9.9063    3.6742    7.5283 C.ar    2  LIG2       -0.0403
     12 H           9.9688    3.7705    8.4712 H       2  LIG2        0.0636
     13 C           9.7632    3.4282    4.7700 C.ar    2  LIG2       -0.0459
     14 H           9.7242    3.3418    3.8250 H       2  LIG2        0.0626
     15 C           9.6079    4.7763    6.7449 C.ar    2  LIG2       -0.0459
     16 H           9.4454    5.6144    7.1620 H       2  LIG2        0.0626
     17 N          10.4354    1.3121    7.6872 N.pl3   2  LIG2       -0.3580
     18 N           5.6873    1.0560    7.4263 N.3     1  LIG1       -0.2941
     19 O           2.5087    5.0177    2.3243 O.3     4  HOH4       -0.4105
     20 C           6.4240    2.7755    5.9063 C.2     1  LIG1       -0.0439
     21 H           7.3026    2.4153    5.8812 H       1  LIG1        0.0607
     22 C           6.1202    3.8757    5.1688 C.2     1  LIG1       -0.0086
     23 H           6.7977    4.2698    4.6316 H       1  LIG1        0.0779
     24 C           5.4348    2.1668    6.7120 C.3     1  LIG1        0.0870
     25 C           3.9345    3.8882    5.9469 C.2     1  LIG1       -0.0086
     26 H           3.0737    4.2903    5.9590 H       1  LIG1        0.0779
     27 C           4.1631    2.7884    6.7095 C.2     1  LIG1       -0.0439
     28 H           3.4647    2.4327    7.2458 H       1  LIG1        0.0607
     29 C           7.0150    0.4517    7.4565 C.3     1  LIG1       -0.0119
     30 H           7.2430    0.1189    6.5635 H       1  LIG1        0.0391
     31 H           7.0211   -0.2925    8.0938 H       1  LIG1        0.0391
     32 H           7.6735    1.1234    7.7328 H       1  LIG1        0.0391
     33 C           4.6324    0.3764    8.1603 C.3     1  LIG1       -0.0119
     34 H           4.3074    0.9590    8.8789 H       1  LIG1        0.0391
     35 H           4.9850   -0.4522    8.5472 H       1  LIG1        0.0391
     36 H           3.8943    0.1651    7.5515 H       1  LIG1        0.0391
     37 H          10.4503    1.3399    8.5239 H       2  LIG2        0.1423
     38 H          10.4461    0.4708    7.2458 H       2  LIG2        0.1423
     39 H           3.1226    5.5699    2.6859 H       0  HOH0        0.2052
     40 H           5.7872    7.0273    6.3476 H       0  HOH0        0.2052
     41 H           7.1891    6.8313    6.2094 H       0  HOH0        0.2052
     42 H           1.8052    5.2594    2.5736 H       0  HOH0        0.2052
@<TRIPOS>BOND
     1    19    42    1
     2    19    39    1
     3     2     7   ar
     4    14    13    1
     5     7     3   ar
     6     7     6    1
     7    23    22    1
     8     1     4    1
     9    13     6   ar
    10    13     9   ar
    11    10     9    1
    12    22     4    1
    13    22    20    2
    14     4    25    1
    15     6    15   ar
    16     9     5   ar
    17    21    20    1
    18    20    24    1
    19    25    26    1
    20    25    27    2
    21    41     8    1
    22    40     8    1
    23    30    29    1
    24    27    24    1
    25    27    28    1
    26    24    18    1
    27    15    16    1
    28    15    11   ar
    29     5    11   ar
    30     5    17    1
    31    38    17    1
    32    18    29    1
    33    18    33    1
    34    29    32    1
    35    29    31    1
    36    11    12    1
    37    36    33    1
    38    17    37    1
    39    33    35    1
    40    33    34    1
