@<TRIPOS>MOLECULE
?
 31 31 0 0 0
SMALL
GASTEIGER

@<TRIPOS>ATOM
      1 C           6.5786    0.8111   17.9612 C.ar    1  LIG1        0.0512
      2 C           5.3799    0.2139   18.3197 C.ar    1  LIG1        0.1366
      3 C           5.0569   -0.0914   19.6281 C.ar    1  LIG1       -0.0227
      4 H           4.2237   -0.4999   19.8353 H       1  LIG1        0.0647
      5 C           5.9645    0.2050   20.6366 C.ar    1  LIG1       -0.0237
      6 H           5.7725    0.0007   21.5441 H       1  LIG1        0.0647
      7 C           7.1512    0.8036   20.2789 C.ar    1  LIG1        0.1246
      8 C           7.4844    1.1163   18.9741 C.ar    1  LIG1       -0.0106
      9 H           8.3144    1.5315   18.7719 H       1  LIG1        0.0657
     10 F           4.4747   -0.0889   17.3541 F       1  LIG1       -0.2044
     11 F           8.0465    1.1143   21.2577 F       1  LIG1       -0.2055
     12 I           7.0205    1.2760   15.9548 I       1  LIG1       -0.0408
     13 C           6.7588    1.1824   12.4016 C.ar    2  LIG2        0.0293
     14 H           6.0440    0.7004   12.8004 H       2  LIG2        0.0830
     15 C           6.8281    1.1958   11.0219 C.ar    2  LIG2       -0.0225
     16 H           6.1802    0.7323   10.5050 H       2  LIG2        0.0651
     17 C           7.8701    1.9044   10.3888 C.ar    2  LIG2        0.0321
     18 C           8.8024    2.5335   11.2469 C.ar    2  LIG2       -0.0225
     19 H           9.5399    3.0111   10.8856 H       2  LIG2        0.0651
     20 C           8.6295    2.4458   12.6176 C.ar    2  LIG2        0.0293
     21 H           9.2705    2.8766   13.1704 H       2  LIG2        0.0830
     22 C           6.9007    1.4461    8.1945 C.3     2  LIG2        0.0004
     23 H           6.8471    0.4746    8.3150 H       2  LIG2        0.0428
     24 H           7.0916    1.6481    7.2546 H       2  LIG2        0.0428
     25 H           6.0477    1.8546    8.4504 H       2  LIG2        0.0428
     26 C           9.0254    2.7667    8.4152 C.3     2  LIG2        0.0004
     27 H           8.9255    3.7078    8.6700 H       2  LIG2        0.0428
     28 H           8.9679    2.6843    7.4411 H       2  LIG2        0.0428
     29 H           9.8963    2.4369    8.7196 H       2  LIG2        0.0428
     30 N           7.6245    1.7989   13.2211 N.ar    2  LIG2       -0.2631
     31 N           7.9655    1.9809    9.0323 N.pl3   2  LIG2       -0.3359
@<TRIPOS>BOND
     1    24    22    1
     2    28    26    1
     3    22    23    1
     4    22    25    1
     5    22    31    1
     6    26    27    1
     7    26    29    1
     8    26    31    1
     9    31    17    1
    10    17    15   ar
    11    17    18   ar
    12    16    15    1
    13    19    18    1
    14    15    13   ar
    15    18    20   ar
    16    13    14    1
    17    13    30   ar
    18    20    21    1
    19    20    30   ar
    20    12     1    1
    21    10     2    1
    22     1     2   ar
    23     1     8   ar
    24     2     3   ar
    25     9     8    1
    26     8     7   ar
    27     3     4    1
    28     3     5   ar
    29     7     5   ar
    30     7    11    1
    31     5     6    1
