@<TRIPOS>MOLECULE
Haloperidol-succinic acid salt hydrate
 62 61 0 0 0
SMALL
GASTEIGER

@<TRIPOS>ATOM
      1 CL          8.4332    3.2451   -7.1476 Cl      1  LIG1       -0.0835
      2 O           4.1094    4.2468   -2.1157 O.3     1  LIG1       -0.3836
      3 F           1.6065    3.9969   10.0308 F       1  LIG1       -0.2055
      4 N           5.4908    3.4872    1.0331 N.4     1  LIG1        0.2354
      5 O          -0.7141   -2.5293   10.2967 O.3     2  HOH2       -0.4105
      6 O           5.1561    2.1433    5.1867 O.2     1  LIG1       -0.2921
      7 C           8.1801    2.9721   -4.4605 C.ar    1  LIG1       -0.0430
      8 H           9.0762    2.6576   -4.4646 H       1  LIG1        0.0632
      9 C           4.9381    3.6095    2.4283 C.3     1  LIG1       -0.0315
     10 H           4.6365    2.7200    2.7399 H       1  LIG1        0.0814
     11 H           4.1526    4.2123    2.4175 H       1  LIG1        0.0814
     12 C           7.5558    3.3431   -5.6450 C.ar    1  LIG1        0.0410
     13 C           6.1490    3.5304   -3.2447 C.ar    1  LIG1       -0.0157
     14 C           5.4087    3.6952   -1.9149 C.3     1  LIG1        0.1005
     15 C           7.4717    3.0686   -3.2698 C.ar    1  LIG1       -0.0545
     16 H           7.8925    2.8171   -2.4567 H       1  LIG1        0.0622
     17 C           5.5474    4.8202    0.3471 C.3     1  LIG1       -0.0289
     18 H           6.0786    5.4517    0.8939 H       1  LIG1        0.0815
     19 H           4.6322    5.1854    0.2579 H       1  LIG1        0.0815
     20 C           5.3076    2.3513   -1.1698 C.3     1  LIG1        0.0207
     21 H           4.7550    1.7253   -1.7019 H       1  LIG1        0.0348
     22 H           6.2123    1.9593   -1.0823 H       1  LIG1        0.0348
     23 C           6.1772    4.6876   -1.0304 C.3     1  LIG1        0.0207
     24 H           7.1139    4.3813   -0.9331 H       1  LIG1        0.0348
     25 H           6.1910    5.5746   -1.4705 H       1  LIG1        0.0348
     26 C           2.3949    3.8341    8.9382 C.ar    1  LIG1        0.1234
     27 C           5.5456    3.8861   -4.4520 C.ar    1  LIG1       -0.0545
     28 H           4.6476    4.1949   -4.4557 H       1  LIG1        0.0622
     29 C           4.6926    2.5100    0.2168 C.3     1  LIG1       -0.0289
     30 H           3.7601    2.8320    0.1315 H       1  LIG1        0.0815
     31 H           4.6748    1.6325    0.6739 H       1  LIG1        0.0815
     32 C           5.3505    4.4812    4.7469 C.3     1  LIG1        0.0153
     33 H           6.0181    4.9606    5.2991 H       1  LIG1        0.0347
     34 H           4.5879    5.0959    4.5999 H       1  LIG1        0.0347
     35 C           6.2464    3.7931   -5.6521 C.ar    1  LIG1       -0.0430
     36 H           5.8287    4.0368   -6.4699 H       1  LIG1        0.0632
     37 C           4.8587    3.2802    5.5212 C.2     1  LIG1        0.1634
     38 C           5.9790    4.1562    3.3970 C.3     1  LIG1       -0.0055
     39 H           6.3850    4.9754    3.0168 H       1  LIG1        0.0321
     40 H           6.6975    3.4866    3.5213 H       1  LIG1        0.0321
     41 C           4.0031    3.5142    6.7276 C.ar    1  LIG1        0.0176
     42 C           2.6603    2.5559    8.5016 C.ar    1  LIG1       -0.0258
     43 H           2.2974    1.8003    8.9481 H       1  LIG1        0.0646
     44 C           2.8985    4.9595    8.3215 C.ar    1  LIG1       -0.0258
     45 H           2.6948    5.8273    8.6510 H       1  LIG1        0.0646
     46 C           3.7120    4.7956    7.2050 C.ar    1  LIG1       -0.0486
     47 H           4.0705    5.5571    6.7645 H       1  LIG1        0.0625
     48 C           3.4743    2.4057    7.3905 C.ar    1  LIG1       -0.0486
     49 H           3.6766    1.5335    7.0743 H       1  LIG1        0.0625
     50 O          -0.8874    2.0866    1.4473 O.co2   3  LIG3       -0.2464
     51 O           0.4095    2.6687   -0.2660 O.co2   3  LIG3       -0.2464
     52 O           6.1291    0.3452    2.8506 O.3     4  HOH4       -0.4105
     53 C          -0.0168    1.8305    0.5613 C.2     3  LIG3        0.3565
     54 C           0.4686    0.3943    0.4663 C.3     3  LIG3        0.0594
     55 H           0.4740   -0.0187    1.3655 H       3  LIG3        0.0384
     56 H           1.3924    0.3741    0.1100 H       3  LIG3        0.0384
     57 H           6.3445    3.1552    1.0760 H       1  LIG1        0.2033
     58 H          -0.6132   -3.3491   10.0924 H       0  HOH0        0.2052
     59 H          -1.2481   -2.4963   10.9370 H       0  HOH0        0.2052
     60 H           6.7328    0.7884    2.4656 H       0  HOH0        0.2052
     61 H           5.8763    0.6955    3.5403 H       0  HOH0        0.2052
     62 H           3.5157    3.5885   -2.2506 H       1  LIG1        0.2106
@<TRIPOS>BOND
     1     1    12    1
     2    36    35    1
     3    35    12   ar
     4    35    27   ar
     5    12     7   ar
     6     8     7    1
     7     7    15   ar
     8    28    27    1
     9    27    13   ar
    10    15    13   ar
    11    15    16    1
    12    13    14    1
    13    62     2    1
    14     2    14    1
    15    14    20    1
    16    14    23    1
    17    21    20    1
    18    25    23    1
    19    20    22    1
    20    20    29    1
    21    23    24    1
    22    23    17    1
    23    51    53   ar
    24    56    54    1
    25    30    29    1
    26    29    31    1
    27    29     4    1
    28    19    17    1
    29    17    18    1
    30    17     4    1
    31    54    53    1
    32    54    55    1
    33    53    50   ar
    34     4    57    1
    35     4     9    1
    36    11     9    1
    37     9    10    1
    38     9    38    1
    39    60    52    1
    40    52    61    1
    41    39    38    1
    42    38    40    1
    43    38    32    1
    44    34    32    1
    45    32    33    1
    46    32    37    1
    47     6    37    2
    48    37    41    1
    49    41    46   ar
    50    41    48   ar
    51    47    46    1
    52    49    48    1
    53    46    44   ar
    54    48    42   ar
    55    44    45    1
    56    44    26   ar
    57    42    26   ar
    58    42    43    1
    59    26     3    1
    60    58     5    1
    61     5    59    1
