@<TRIPOS>MOLECULE
C35 H24 Br2 N2,C Cl4
 68 74 0 0 0
SMALL
GASTEIGER

@<TRIPOS>ATOM
      1 BR          2.6095    4.8812    8.3982 Br      1  LIG1       -0.0823
      2 BR          6.7418    5.0839   13.5140 Br      1  LIG1       -0.0823
      3 N           5.4163    1.6917   10.5329 N.ar    1  LIG1       -0.2509
      4 N           1.8534    4.9782   13.0407 N.ar    1  LIG1       -0.2509
      5 C           5.4472    3.9826   11.2021 C.3     1  LIG1        0.0188
      6 C           4.7044    2.7936   10.6227 C.ar    1  LIG1        0.0513
      7 C           3.3238    2.8772   10.2709 C.ar    1  LIG1       -0.0034
      8 C           2.6355    4.2162   10.2784 C.3     1  LIG1        0.0503
      9 C           3.3242    5.2415   11.1722 C.3     1  LIG1        0.0188
     10 C           3.0659    4.7642   12.5990 C.ar    1  LIG1        0.0513
     11 C           4.0652    4.0437   13.3357 C.ar    1  LIG1       -0.0034
     12 C           5.4196    3.8149   12.7248 C.3     1  LIG1        0.0503
     13 C           4.8174    5.3116   10.8338 C.3     1  LIG1       -0.0338
     14 C           4.7795    0.5612   10.0762 C.ar    1  LIG1        0.0719
     15 C           5.5745   -0.6062    9.8831 C.ar    1  LIG1       -0.0357
     16 C           4.9789   -1.7595    9.4564 C.ar    1  LIG1       -0.0597
     17 C           3.6031   -1.8248    9.2153 C.ar    1  LIG1       -0.0611
     18 C           2.8231   -0.7194    9.3815 C.ar    1  LIG1       -0.0520
     19 C           3.4013    0.5101    9.7948 C.ar    1  LIG1        0.0084
     20 C           2.6678    1.7319    9.9130 C.ar    1  LIG1       -0.0027
     21 C           1.4974    4.5036   14.2610 C.ar    1  LIG1        0.0719
     22 C           0.1997    4.7439   14.7281 C.ar    1  LIG1       -0.0357
     23 C          -0.2020    4.2550   15.9363 C.ar    1  LIG1       -0.0597
     24 C           0.6734    3.5108   16.7373 C.ar    1  LIG1       -0.0611
     25 C           1.9525    3.2505   16.3226 C.ar    1  LIG1       -0.0520
     26 C           2.4148    3.7379   15.0635 C.ar    1  LIG1        0.0084
     27 C           3.7213    3.5072   14.5574 C.ar    1  LIG1       -0.0027
     28 C           1.1948    1.7535    9.6016 C.ar    1  LIG1       -0.0169
     29 C           0.2729    1.9196   10.6287 C.ar    1  LIG1       -0.0540
     30 C          -1.0922    1.9675   10.3323 C.ar    1  LIG1       -0.0612
     31 C          -1.5179    1.8511    9.0342 C.ar    1  LIG1       -0.0617
     32 C          -0.6174    1.6870    8.0146 C.ar    1  LIG1       -0.0612
     33 C           0.7522    1.6369    8.2901 C.ar    1  LIG1       -0.0540
     34 C           4.6879    2.6935   15.3464 C.ar    1  LIG1       -0.0169
     35 C           4.7082    1.3112   15.2117 C.ar    1  LIG1       -0.0540
     36 C           5.6498    0.5595   15.9214 C.ar    1  LIG1       -0.0612
     37 C           6.5487    1.1859   16.7448 C.ar    1  LIG1       -0.0617
     38 C           6.5384    2.5499   16.8841 C.ar    1  LIG1       -0.0612
     39 C           5.6037    3.3179   16.1834 C.ar    1  LIG1       -0.0540
     40 C          -1.0313    7.4703    9.8395 C.3     2  LIG2        0.2662
     41 CL         -0.3591    7.1677    8.2558 Cl      2  LIG2       -0.0666
     42 CL         -0.0102    6.7410   11.0554 Cl      2  LIG2       -0.0666
     43 CL         -2.6325    6.7794    9.9340 Cl      2  LIG2       -0.0666
     44 CL         -1.1241    9.1933   10.1137 Cl      2  LIG2       -0.0666
     45 H           6.3951    3.9663   10.8862 H       1  LIG1        0.0378
     46 H           1.6931    4.0954   10.5913 H       1  LIG1        0.0474
     47 H           2.9062    6.1405   11.0375 H       1  LIG1        0.0378
     48 H           5.7090    2.8833   12.9434 H       1  LIG1        0.0474
     49 H           4.9352    5.4833    9.8547 H       1  LIG1        0.0279
     50 H           5.2489    6.0481   11.3549 H       1  LIG1        0.0279
     51 H           6.5579   -0.5815   10.0583 H       1  LIG1        0.0639
     52 H           5.5397   -2.5757    9.3127 H       1  LIG1        0.0618
     53 H           3.1886   -2.6857    8.9204 H       1  LIG1        0.0618
     54 H           1.8386   -0.7746    9.2123 H       1  LIG1        0.0624
     55 H          -0.4378    5.2783   14.1726 H       1  LIG1        0.0639
     56 H          -1.1340    4.4310   16.2537 H       1  LIG1        0.0618
     57 H           0.3606    3.1649   17.6222 H       1  LIG1        0.0618
     58 H           2.5646    2.7166   16.9050 H       1  LIG1        0.0624
     59 H           0.5848    2.0039   11.5750 H       1  LIG1        0.0624
     60 H          -1.7592    2.0867   11.0674 H       1  LIG1        0.0618
     61 H          -2.4961    1.8874    8.8291 H       1  LIG1        0.0618
     62 H          -0.9403    1.6038    7.0713 H       1  LIG1        0.0618
     63 H           1.4104    1.5167    7.5475 H       1  LIG1        0.0624
     64 H           4.0512    0.8542   14.6113 H       1  LIG1        0.0624
     65 H           5.6675   -0.4354   15.8285 H       1  LIG1        0.0618
     66 H           7.2201    0.6425   17.2494 H       1  LIG1        0.0618
     67 H           7.1993    2.9953   17.4874 H       1  LIG1        0.0618
     68 H           5.5958    4.3138   16.2837 H       1  LIG1        0.0624
@<TRIPOS>BOND
     1    62    32    1
     2    63    33    1
     3    32    33   ar
     4    32    31   ar
     5    41    40    1
     6    33    28   ar
     7     1     8    1
     8    61    31    1
     9    53    17    1
    10    31    30   ar
    11    54    18    1
    12    17    18   ar
    13    17    16   ar
    14    52    16    1
    15    18    19   ar
    16    16    15   ar
    17    28    20    1
    18    28    29   ar
    19    19    20   ar
    20    19    14   ar
    21    40    43    1
    22    40    44    1
    23    40    42    1
    24    49    13    1
    25    15    51    1
    26    15    14   ar
    27    20     7   ar
    28    14     3   ar
    29     7     8    1
    30     7     6   ar
    31     8    46    1
    32     8     9    1
    33    30    29   ar
    34    30    60    1
    35     3     6   ar
    36     6     5    1
    37    29    59    1
    38    13     9    1
    39    13     5    1
    40    13    50    1
    41    45     5    1
    42    47     9    1
    43     9    10    1
    44     5    12    1
    45    10     4   ar
    46    10    11   ar
    47    12    48    1
    48    12    11    1
    49    12     2    1
    50     4    21   ar
    51    11    27   ar
    52    55    22    1
    53    21    22   ar
    54    21    26   ar
    55    27    26   ar
    56    27    34    1
    57    64    35    1
    58    22    23   ar
    59    26    25   ar
    60    35    34   ar
    61    35    36   ar
    62    34    39   ar
    63    65    36    1
    64    36    37   ar
    65    23    56    1
    66    23    24   ar
    67    39    68    1
    68    39    38   ar
    69    25    24   ar
    70    25    58    1
    71    24    57    1
    72    37    38   ar
    73    37    66    1
    74    38    67    1
