@<TRIPOS>MOLECULE
?
 63 62 0 0 0
SMALL
GASTEIGER

@<TRIPOS>ATOM
      1 O           5.8629   -0.0437    7.9587 O.3     1  LIG1       -0.3761
      2 H           5.0517   -0.2272    8.0751 H       1  LIG1        0.2110
      3 O           7.2041    4.4205    9.8633 O.3     2  LIG2       -0.3812
      4 H           6.9024    4.7474    9.1509 H       2  LIG2        0.2105
      5 O           4.9575    2.3041    6.9418 O.co2   1  LIG1       -0.2431
      6 O           4.9404    1.4273    4.9022 O.co2   1  LIG1       -0.2431
      7 C           5.2692    1.4220    6.1159 C.2     1  LIG1        0.3884
      8 N           5.1359    2.3690    9.7685 N.4     2  LIG2        0.2262
      9 H           5.2049    2.1766    8.7559 H       2  LIG2        0.2001
     10 H           4.8270    3.3443    9.9136 H       2  LIG2        0.2001
     11 H           4.4510    1.7247   10.1965 H       2  LIG2        0.2001
     12 C           7.5946    0.4579    6.3730 C.ar    1  LIG1       -0.0083
     13 C           7.5068    3.0623    9.6651 C.3     2  LIG2        0.1267
     14 H           7.4559    2.8652    8.6869 H       2  LIG2        0.0704
     15 C           8.8952    2.7147   10.1549 C.ar    2  LIG2       -0.0134
     16 C           6.3985    2.4486   11.9014 C.ar    2  LIG2        0.0029
     17 C           6.9188    1.5111   12.7661 C.ar    2  LIG2       -0.0532
     18 H           7.3101    0.7157   12.4257 H       2  LIG2        0.0622
     19 C           6.4674    2.1701   10.4033 C.3     2  LIG2        0.0322
     20 H           6.7329    1.2143   10.2769 H       2  LIG2        0.0932
     21 C           6.0959    0.2283    6.5726 C.3     1  LIG1        0.1810
     22 H           5.8213   -0.5717    6.0398 H       1  LIG1        0.0763
     23 C           9.4722    1.5176    9.7929 C.ar    2  LIG2       -0.0559
     24 H           9.0076    0.9340    9.2054 H       2  LIG2        0.0621
     25 C           6.8685    1.7306   14.1464 C.ar    2  LIG2       -0.0613
     26 H           7.2180    1.0786   14.7425 H       2  LIG2        0.0618
     27 C           5.8335    3.5915   12.4085 C.ar    2  LIG2       -0.0532
     28 H           5.4633    4.2364   11.8181 H       2  LIG2        0.0622
     29 C           8.4474   -0.5706    6.6488 C.ar    1  LIG1       -0.0556
     30 H           8.1154   -1.3990    6.9748 H       1  LIG1        0.0621
     31 C          10.7230    1.1506   10.2726 C.ar    2  LIG2       -0.0614
     32 H          11.1173    0.3263   10.0141 H       2  LIG2        0.0618
     33 C           9.5846    3.5620   10.9951 C.ar    2  LIG2       -0.0559
     34 H           9.2064    4.4004   11.2321 H       2  LIG2        0.0621
     35 C           6.3250    2.8634   14.6333 C.ar    2  LIG2       -0.0617
     36 H           6.3074    3.0062   15.5727 H       2  LIG2        0.0618
     37 C           5.7986    3.8157   13.7974 C.ar    2  LIG2       -0.0613
     38 H           5.4161    4.6105   14.1507 H       2  LIG2        0.0618
     39 C           9.8461   -0.3800    6.4419 C.ar    1  LIG1       -0.0614
     40 H          10.4545   -1.0821    6.6416 H       1  LIG1        0.0618
     41 C          11.3785    1.9978   11.1273 C.ar    2  LIG2       -0.0617
     42 H          12.2283    1.7488   11.4691 H       2  LIG2        0.0618
     43 C          10.3074    0.7906    5.9636 C.ar    1  LIG1       -0.0617
     44 H          11.2321    0.8951    5.7726 H       1  LIG1        0.0618
     45 C          10.8311    3.1968   11.4964 C.ar    2  LIG2       -0.0614
     46 H          11.2952    3.7738   12.0910 H       2  LIG2        0.0618
     47 C           8.1022    1.6308    5.9522 C.ar    1  LIG1       -0.0556
     48 H           7.5169    2.3595    5.7827 H       1  LIG1        0.0621
     49 O           3.3549    0.6750   10.8931 O.3     3  LIG3       -0.3920
     50 H           2.9726    0.5411   10.1577 H       3  LIG3        0.2098
     51 C           9.4738    1.7949    5.7611 C.ar    1  LIG1       -0.0614
     52 H           9.8118    2.6380    5.4825 H       1  LIG1        0.0618
     53 C           2.3871    0.7906   11.9129 C.3     3  LIG3        0.0530
     54 H           2.5458   -0.0566   12.4214 H       3  LIG3        0.0590
     55 C           2.7193    1.7288   12.8609 C.3     3  LIG3       -0.0198
     56 H           2.4254    2.6079   12.5076 H       3  LIG3        0.0296
     57 H           3.7060    1.7577   12.9054 H       3  LIG3        0.0296
     58 C           1.1879    0.5959   11.4763 C.3     3  LIG3       -0.0389
     59 H           1.1839   -0.1186   10.8127 H       3  LIG3        0.0254
     60 H           0.8431    1.4220   11.0784 H       3  LIG3        0.0254
     61 H           0.6052    0.3387   12.2318 H       3  LIG3        0.0254
     62 C           1.5315    0.7670   16.5896 C.3     4  LIG4        0.0000
     63 C           2.1467    1.6344   14.5069 C.3     3  LIG3       -0.0065
@<TRIPOS>BOND
     1     6     7   ar
     2    52    51    1
     3    51    47   ar
     4    51    43   ar
     5    44    43    1
     6    48    47    1
     7    47    12   ar
     8    43    39   ar
     9    22    21    1
    10     7    21    1
    11     7     5   ar
    12    12    21    1
    13    12    29   ar
    14    39    40    1
    15    39    29   ar
    16    21     1    1
    17    29    30    1
    18     1     2    1
    19    14    13    1
    20     9     8    1
    21     4     3    1
    22    24    23    1
    23    13     3    1
    24    13    15    1
    25    13    19    1
    26     8    10    1
    27     8    11    1
    28     8    19    1
    29    23    15   ar
    30    23    31   ar
    31    32    31    1
    32    15    33   ar
    33    50    49    1
    34    31    41   ar
    35    20    19    1
    36    19    16    1
    37    59    58    1
    38    49    53    1
    39    33    34    1
    40    33    45   ar
    41    60    58    1
    42    41    42    1
    43    41    45   ar
    44    58    53    1
    45    58    61    1
    46    45    46    1
    47    28    27    1
    48    16    27   ar
    49    16    17   ar
    50    53    54    1
    51    53    55    1
    52    27    37   ar
    53    18    17    1
    54    56    55    1
    55    17    25   ar
    56    55    57    1
    57    55    63    1
    58    37    38    1
    59    37    35   ar
    60    25    35   ar
    61    25    26    1
    62    35    36    1
