@<TRIPOS>MOLECULE
?
 50 52 0 0 0
SMALL
GASTEIGER

@<TRIPOS>ATOM
      1 O          11.9026    0.2421    6.4807 O.3     1  LIG1       -0.3750
      2 H          11.9718    0.5411    7.2626 H       1  LIG1        0.2114
      3 C           9.9244    1.6493    6.1855 C.ar    1  LIG1        0.0005
      4 C          10.2318    2.7654    5.4370 C.ar    1  LIG1       -0.0546
      5 H          10.9152    2.7344    4.7776 H       1  LIG1        0.0622
      6 C           9.5170    3.9420    5.6687 C.ar    1  LIG1       -0.0614
      7 H           9.7149    4.7208    5.1614 H       1  LIG1        0.0618
      8 C           8.5189    3.9839    6.6344 C.ar    1  LIG1       -0.0612
      9 H           8.0434    4.7934    6.7826 H       1  LIG1        0.0618
     10 C           8.2067    2.8581    7.3853 C.ar    1  LIG1       -0.0536
     11 H           7.5208    2.8892    8.0413 H       1  LIG1        0.0624
     12 C           8.9158    1.6893    7.1597 C.ar    1  LIG1       -0.0110
     13 C           8.7677    0.3408    7.7335 C.ar    1  LIG1       -0.0110
     14 C           7.8983   -0.1473    8.7009 C.ar    1  LIG1       -0.0536
     15 H           7.2804    0.4302    9.1339 H       1  LIG1        0.0624
     16 C           7.9514   -1.5017    9.0226 C.ar    1  LIG1       -0.0612
     17 H           7.3599   -1.8522    9.6777 H       1  LIG1        0.0618
     18 C           8.8593   -2.3452    8.3974 C.ar    1  LIG1       -0.0614
     19 H           8.8861   -3.2646    8.6337 H       1  LIG1        0.0618
     20 C           9.7318   -1.8563    7.4271 C.ar    1  LIG1       -0.0546
     21 H          10.3539   -2.4330    7.0003 H       1  LIG1        0.0622
     22 C           9.6746   -0.5154    7.0977 C.ar    1  LIG1        0.0005
     23 C          10.5318    0.2463    6.0912 C.3     1  LIG1        0.1429
     24 C          10.4725   -0.3089    4.6630 C.ar    1  LIG1        0.0002
     25 C          11.6614   -0.6276    4.0122 C.ar    1  LIG1       -0.0546
     26 H          12.4842   -0.5247    4.4748 H       1  LIG1        0.0622
     27 C          11.6724   -1.0920    2.7017 C.ar    1  LIG1       -0.0614
     28 H          12.4955   -1.3151    2.2835 H       1  LIG1        0.0618
     29 C          10.4886   -1.2287    2.0089 C.ar    1  LIG1       -0.0612
     30 H          10.4903   -1.5302    1.1078 H       1  LIG1        0.0618
     31 C           9.2939   -0.9192    2.6441 C.ar    1  LIG1       -0.0540
     32 H           8.4778   -1.0151    2.1670 H       1  LIG1        0.0624
     33 C           9.2596   -0.4718    3.9648 C.ar    1  LIG1       -0.0150
     34 C           7.9110   -0.2140    4.5587 C.2     1  LIG1       -0.0356
     35 C           7.3199    1.0458    4.4864 C.3     1  LIG1       -0.0005
     36 H           7.7932    1.7659    4.0880 H       1  LIG1        0.0361
     37 C           7.1888   -1.2561    5.1359 C.2     1  LIG1       -0.0574
     38 H           7.5748   -2.1234    5.1847 H       1  LIG1        0.0621
     39 O          13.1081    1.3298   -1.2251 O.2     2  LIG2       -0.2793
     40 N          13.3753    2.1709    0.8580 N.am    2  LIG2       -0.3101
     41 C          12.8269    1.3587   -0.0320 C.2     2  LIG2        0.2020
     42 H          12.1651    0.7521    0.2775 H       2  LIG2        0.1253
     43 C          14.3636    3.1513    0.4636 C.3     2  LIG2        0.0026
     44 H          14.6092    3.0084   -0.4749 H       2  LIG2        0.0428
     45 H          15.1593    3.0577    1.0268 H       2  LIG2        0.0428
     46 H          13.9922    4.0523    0.5711 H       2  LIG2        0.0428
     47 C          12.9500    2.1953    2.2481 C.3     2  LIG2        0.0026
     48 H          12.1651    1.6193    2.3594 H       2  LIG2        0.0428
     49 H          12.7201    3.1125    2.5032 H       2  LIG2        0.0428
     50 H          13.6782    1.8700    2.8182 H       2  LIG2        0.0428
@<TRIPOS>BOND
     1    39    41    2
     2    44    43    1
     3    41    42    1
     4    41    40   am
     5    43    46    1
     6    43    40    1
     7    43    45    1
     8    40    47    1
     9    30    29    1
    10    29    31   ar
    11    29    27   ar
    12    32    31    1
    13    47    48    1
    14    47    49    1
    15    47    50    1
    16    28    27    1
    17    31    33   ar
    18    27    25   ar
    19    33    34    1
    20    33    24   ar
    21    25    26    1
    22    25    24   ar
    23    36    35    1
    24    35    34    1
    25    34    37    2
    26    24    23    1
    27     5     4    1
    28    37    38    1
    29     7     6    1
    30     4     6   ar
    31     4     3   ar
    32     6     8   ar
    33    23     3    1
    34    23     1    1
    35    23    22    1
    36     3    12   ar
    37     1     2    1
    38     8     9    1
    39     8    10   ar
    40    21    20    1
    41    22    20   ar
    42    22    13   ar
    43    12    10   ar
    44    12    13    1
    45    10    11    1
    46    20    18   ar
    47    13    14   ar
    48    18    19    1
    49    18    16   ar
    50    14    16   ar
    51    14    15    1
    52    16    17    1
