@<TRIPOS>MOLECULE
ACN solvate of HAL and OA salt
 112 113 0 0 0
SMALL
GASTEIGER

@<TRIPOS>ATOM
      1 CL         11.0685   10.4636    6.4751 Cl      1  LIG1       -0.0835
      2 CL         11.5068    5.3097   19.0801 Cl      2  LIG2       -0.0835
      3 O           8.9216    5.7722   13.0213 O.3     2  LIG2       -0.3836
      4 H           9.7907    6.0100   13.0591 H       2  LIG2        0.2106
      5 O          10.9008   11.7832   13.0538 O.3     1  LIG1       -0.3836
      6 H          10.0795   11.9120   13.0109 H       1  LIG1        0.2106
      7 O           1.5904    5.3082   13.6428 O.co2   1  LIG1       -0.2331
      8 F           7.8877   -5.9290    9.5623 F       2  LIG2       -0.2055
      9 O           8.1684   12.4589   12.8782 O.co2   2  LIG2       -0.2331
     10 F           8.8662    6.7395   24.2941 F       1  LIG1       -0.2055
     11 N           7.4314    2.9570   11.5468 N.4     2  LIG2        0.2354
     12 N          11.5355    8.8685   14.9581 N.4     1  LIG1        0.2354
     13 O           7.5170   10.8749   14.3283 O.co2   2  LIG2       -0.2331
     14 O           0.6201    7.0715   14.6342 O.co2   1  LIG1       -0.2331
     15 C          11.3136    9.2933    8.8953 C.ar    1  LIG1       -0.0430
     16 H          11.4336    8.4812    8.4183 H       1  LIG1        0.0632
     17 C          10.9842   11.6925    8.8929 C.ar    1  LIG1       -0.0430
     18 H          10.8771   12.5070    8.4157 H       1  LIG1        0.0632
     19 C          11.1670   10.4965   10.9983 C.ar    1  LIG1       -0.0157
     20 O           7.7529   -0.0444    7.3489 O.2     2  LIG2       -0.2921
     21 C           7.4012    4.1062   13.7634 C.3     2  LIG2        0.0207
     22 H           7.3167    3.2461   14.2468 H       2  LIG2        0.0348
     23 H           6.9229    4.7972   14.2870 H       2  LIG2        0.0348
     24 C          11.0103   11.6841   10.2870 C.ar    1  LIG1       -0.0545
     25 H          10.9179   12.5022   10.7588 H       1  LIG1        0.0622
     26 C          11.1536   10.4821   12.5296 C.3     1  LIG1        0.1005
     27 C           7.2991   11.8029   13.5280 C.2     2  LIG2        0.4661
     28 C          12.5388    9.9099   14.5707 C.3     1  LIG1       -0.0289
     29 H          13.4389    9.6400   14.8822 H       1  LIG1        0.0815
     30 H          12.3087   10.7724   15.0002 H       1  LIG1        0.0815
     31 O           9.0163    8.6743   18.3131 O.2     1  LIG1       -0.2921
     32 C           6.7595    3.9791   12.4044 C.3     2  LIG2       -0.0289
     33 H           5.8078    3.7308   12.5176 H       2  LIG2        0.0815
     34 H           6.7915    4.8560   11.9465 H       2  LIG2        0.0815
     35 C          11.3279    9.3029   10.2733 C.ar    1  LIG1       -0.0545
     36 H          11.4495    8.4860   10.7428 H       1  LIG1        0.0622
     37 C          11.1214   10.4881    8.2140 C.ar    1  LIG1        0.0410
     38 C           9.1437    7.1868   23.0405 C.ar    1  LIG1        0.1234
     39 C           7.8692   -4.5849    9.3138 C.ar    2  LIG2        0.1234
     40 C           0.6286    6.1192   13.8390 C.2     1  LIG1        0.4661
     41 C           8.1235    7.1988   22.1145 C.ar    1  LIG1       -0.0258
     42 H           7.2557    6.8881   22.3434 H       1  LIG1        0.0646
     43 C           7.7463   -1.8894    8.8167 C.ar    2  LIG2        0.0176
     44 N           1.7626    8.9442   17.6742 N.1     3  LIG3       -0.1969
     45 C           9.5235    4.6077   15.0530 C.ar    2  LIG2       -0.0157
     46 C          10.7297    5.0215   17.5466 C.ar    2  LIG2        0.0410
     47 C           8.8933    3.2797   11.4312 C.3     2  LIG2       -0.0289
     48 H           9.0002    4.1218   10.9224 H       2  LIG2        0.0815
     49 H           9.3441    2.5599   10.9224 H       2  LIG2        0.0815
     50 C           9.6726    8.1477   20.5190 C.ar    1  LIG1        0.0176
     51 C           7.6403   -0.4331    8.4998 C.2     2  LIG2        0.1634
     52 C           7.3373    0.5254    9.6288 C.3     2  LIG2        0.0153
     53 H           8.0177    0.4103   10.3406 H       2  LIG2        0.0347
     54 H           6.4549    0.2987   10.0162 H       2  LIG2        0.0347
     55 C           9.9090    8.6719   19.1466 C.2     1  LIG1        0.1634
     56 C           9.5705    3.4273   12.7830 C.3     2  LIG2        0.0207
     57 H          10.5169    3.6828   12.6463 H       2  LIG2        0.0348
     58 H           9.5556    2.5551   13.2522 H       2  LIG2        0.0348
     59 C          10.8042    4.1374   15.3246 C.ar    2  LIG2       -0.0545
     60 H          11.2761    3.6648   14.6490 H       2  LIG2        0.0622
     61 C          10.1005    9.4816   13.0339 C.3     1  LIG1        0.0207
     62 H           9.1991    9.8055   12.7830 H       1  LIG1        0.0348
     63 H          10.2440    8.6095   12.5900 H       1  LIG1        0.0348
     64 C           8.8543    5.2830   16.0809 C.ar    2  LIG2       -0.0545
     65 H           7.9791    5.6153   15.9225 H       2  LIG2        0.0622
     66 C          10.6678    8.1165   21.4954 C.ar    1  LIG1       -0.0486
     67 H          11.5356    8.4380   21.2818 H       1  LIG1        0.0625
     68 C           7.7971   -4.1650    7.9969 C.ar    2  LIG2       -0.0258
     69 H           7.7755   -4.7900    7.2816 H       2  LIG2        0.0646
     70 C          12.5443   10.0730   13.0581 C.3     1  LIG1        0.0207
     71 H          12.8165    9.2201   12.6382 H       1  LIG1        0.0348
     72 H          13.2061   10.7640   12.8044 H       1  LIG1        0.0348
     73 C           7.8185   -2.3692   10.1318 C.ar    2  LIG2       -0.0486
     74 H           7.8072   -1.7574   10.8580 H       2  LIG2        0.0625
     75 C           8.8844    4.4853   13.6650 C.3     2  LIG2        0.1005
     76 C          11.5761    8.4968   16.4187 C.3     1  LIG1       -0.0315
     77 H          12.4304    8.0349   16.6061 H       1  LIG1        0.0814
     78 H          10.8422    7.8586   16.6061 H       1  LIG1        0.0814
     79 C          11.4132    4.3426   16.5608 C.ar    2  LIG2       -0.0430
     80 H          12.2911    4.0187   16.7241 H       2  LIG2        0.0632
     81 C           6.7342    2.9258   10.2135 C.3     2  LIG2       -0.0315
     82 H           6.7412    3.8411    9.8366 H       2  LIG2        0.0814
     83 H           5.7891    2.6715   10.3621 H       2  LIG2        0.0814
     84 C          10.4210    7.6295   22.7686 C.ar    1  LIG1       -0.0258
     85 H          11.1042    7.6007   23.4292 H       1  LIG1        0.0646
     86 C          11.2941    9.2225   18.8088 C.3     1  LIG1        0.0153
     87 H          11.4877    9.9867   19.4077 H       1  LIG1        0.0347
     88 H          11.9685    8.5208   18.9922 H       1  LIG1        0.0347
     89 C           8.3939    7.6750   20.8413 C.ar    1  LIG1       -0.0486
     90 H           7.7082    7.6810   20.1826 H       1  LIG1        0.0625
     91 C           7.3259    1.9805    9.1838 C.3     2  LIG2       -0.0055
     92 H           8.2554    2.2624    8.9867 H       2  LIG2        0.0321
     93 H           6.8058    2.0549    8.3459 H       2  LIG2        0.0321
     94 C          10.1553    9.2873   14.5294 C.3     1  LIG1       -0.0289
     95 H           9.9107   10.1330   14.9814 H       1  LIG1        0.0815
     96 H           9.5014    8.5951   14.7964 H       1  LIG1        0.0815
     97 C           7.9048   -3.7416   10.3803 C.ar    2  LIG2       -0.0258
     98 H           7.9866   -4.0738   11.2656 H       2  LIG2        0.0646
     99 C           9.4371    5.4810   17.3273 C.ar    2  LIG2       -0.0430
    100 H           8.9586    5.9224   18.0190 H       2  LIG2        0.0632
    101 C           7.7606   -2.8035    7.7593 C.ar    2  LIG2       -0.0486
    102 H           7.7431   -2.4844    6.8634 H       2  LIG2        0.0625
    103 C           1.7863    7.8094   17.5898 C.1     3  LIG3        0.0591
    104 C          11.4439    9.6820   17.3616 C.3     1  LIG1       -0.0055
    105 H          10.6540   10.2194   17.1048 H       1  LIG1        0.0321
    106 H          12.2459   10.2566   17.2817 H       1  LIG1        0.0321
    107 C           1.8126    6.3519   17.5050 C.3     3  LIG3        0.0232
    108 H           2.4971    6.0016   18.1128 H       3  LIG3        0.0382
    109 H           2.0223    6.0820   16.5873 H       3  LIG3        0.0382
    110 H           0.9369    5.9944   17.7589 H       3  LIG3        0.0382
    111 H           7.3506    2.1473   11.9787 H       2  LIG2        0.2033
    112 H          11.8104    8.1213   14.5122 H       1  LIG1        0.2033
@<TRIPOS>BOND
     1     1    37    1
     2   102   101    1
     3    69    68    1
     4    20    51    2
     5   101    68   ar
     6   101    43   ar
     7    68    39   ar
     8    37    17   ar
     9    37    15   ar
    10    93    91    1
    11    18    17    1
    12    16    15    1
    13    51    43    1
    14    51    52    1
    15    43    73   ar
    16    17    24   ar
    17    15    35   ar
    18    92    91    1
    19    91    52    1
    20    91    81    1
    21    39     8    1
    22    39    97   ar
    23    52    54    1
    24    52    53    1
    25    82    81    1
    26    73    97   ar
    27    73    74    1
    28    81    83    1
    29    81    11    1
    30    35    36    1
    31    35    19   ar
    32    24    25    1
    33    24    19   ar
    34    97    98    1
    35    49    47    1
    36    48    47    1
    37    19    26    1
    38    47    11    1
    39    47    56    1
    40    11   111    1
    41    11    32    1
    42    34    32    1
    43    32    33    1
    44    32    21    1
    45    26    61    1
    46    26     5    1
    47    26    70    1
    48    63    61    1
    49    71    70    1
    50    57    56    1
    51    62    61    1
    52    56    58    1
    53    56    75    1
    54    72    70    1
    55     9    27   ar
    56     6     5    1
    57     3     4    1
    58     3    75    1
    59    61    94    1
    60    70    28    1
    61    27    13   ar
    62     7    40   ar
    63    75    21    1
    64    75    45    1
    65    21    22    1
    66    21    23    1
    67    40    14   ar
    68   112    12    1
    69    94    96    1
    70    94    12    1
    71    94    95    1
    72    28    29    1
    73    28    12    1
    74    28    30    1
    75    60    59    1
    76    12    76    1
    77    45    59   ar
    78    45    64   ar
    79    59    79   ar
    80    65    64    1
    81    64    99   ar
    82    76    78    1
    83    76    77    1
    84    76   104    1
    85    79    80    1
    86    79    46   ar
    87   109   107    1
    88   105   104    1
    89   106   104    1
    90    99    46   ar
    91    99   100    1
    92   104    86    1
    93   107   103    1
    94   107   110    1
    95   107   108    1
    96    46     2    1
    97   103    44    3
    98    31    55    2
    99    86    88    1
   100    86    55    1
   101    86    87    1
   102    55    50    1
   103    90    89    1
   104    50    89   ar
   105    50    66   ar
   106    89    41   ar
   107    67    66    1
   108    66    84   ar
   109    41    42    1
   110    41    38   ar
   111    84    38   ar
   112    84    85    1
   113    38    10    1
