@<TRIPOS>MOLECULE
?
 43 45 0 0 0
SMALL
GASTEIGER

@<TRIPOS>ATOM
      1 S           7.5094    8.9925    2.9769 S.O2    1  LIG1        0.0865
      2 O           7.2982    8.9864    4.3899 O.2     1  LIG1       -0.1487
      3 N           7.0922    7.3531    1.0997 N.2     1  LIG1       -0.1653
      4 N           6.9269    7.5347    2.4672 N.pl3   1  LIG1       -0.1361
      5 O           6.8940    9.9878    2.1742 O.2     1  LIG1       -0.1487
      6 C           6.8189    6.2016    0.6143 C.2     1  LIG1        0.0974
      7 C           7.0220    6.0538   -0.8508 C.ar    1  LIG1        0.0025
      8 C           9.2382    9.0111    2.6616 C.ar    1  LIG1        0.1099
      9 C           6.3123    5.0379    1.3991 C.ar    1  LIG1        0.0025
     10 C           7.2239    7.1718   -1.6540 C.ar    1  LIG1       -0.0525
     11 H           7.2048    8.0190   -1.2717 H       1  LIG1        0.0624
     12 C           7.0452    4.8042   -1.4459 C.ar    1  LIG1       -0.0525
     13 H           6.8981    4.0432   -0.9324 H       1  LIG1        0.0624
     14 C           7.4498    7.0444   -2.9953 C.ar    1  LIG1       -0.0611
     15 H           7.5767    7.8025   -3.5179 H       1  LIG1        0.0618
     16 C           7.1485    4.0456    1.8484 C.ar    1  LIG1       -0.0525
     17 H           8.0637    4.1174    1.7026 H       1  LIG1        0.0624
     18 C           4.9588    4.9196    1.6402 C.ar    1  LIG1       -0.0525
     19 H           4.3774    5.5831    1.3450 H       1  LIG1        0.0624
     20 C           9.6999    9.0126    1.3588 C.ar    1  LIG1       -0.0348
     21 H           9.1042    9.0526    0.6455 H       1  LIG1        0.0637
     22 C           7.4902    5.7965   -3.5757 C.ar    1  LIG1       -0.0617
     23 H           7.6547    5.7111   -4.4871 H       1  LIG1        0.0618
     24 C           7.2886    4.6825   -2.8046 C.ar    1  LIG1       -0.0611
     25 H           7.3139    3.8395   -3.1961 H       1  LIG1        0.0618
     26 C           5.3020    2.8362    2.7414 C.ar    1  LIG1       -0.0617
     27 H           4.9609    2.0919    3.1824 H       1  LIG1        0.0618
     28 C           6.6468    2.9428    2.5140 C.ar    1  LIG1       -0.0611
     29 H           7.2236    2.2748    2.8065 H       1  LIG1        0.0618
     30 C          11.4681    8.9584    3.4739 C.ar    1  LIG1       -0.0570
     31 H          12.0615    8.9618    4.1900 H       1  LIG1        0.0621
     32 C           4.4599    3.8266    2.3169 C.ar    1  LIG1       -0.0611
     33 H           3.5475    3.7624    2.4847 H       1  LIG1        0.0618
     34 C          10.1230    8.9936    3.7242 C.ar    1  LIG1       -0.0348
     35 H           9.8080    9.0058    4.5989 H       1  LIG1        0.0637
     36 C          11.0558    8.9530    1.1378 C.ar    1  LIG1       -0.0570
     37 H          11.3725    8.9354    0.2641 H       1  LIG1        0.0621
     38 C          11.9673    8.9183    2.1903 C.ar    1  LIG1       -0.0503
     39 C          13.4477    8.8309    1.9300 C.3     1  LIG1       -0.0397
     40 H          13.8292    9.7125    1.9538 H       1  LIG1        0.0278
     41 H          13.5984    8.4419    1.0654 H       1  LIG1        0.0278
     42 H          13.8602    8.2857    2.6029 H       1  LIG1        0.0278
     43 H           7.1301    6.9340    2.9706 H       1  LIG1        0.1966
@<TRIPOS>BOND
     1    23    22    1
     2    22    14   ar
     3    22    24   ar
     4    15    14    1
     5    25    24    1
     6    14    10   ar
     7    24    12   ar
     8    10    11    1
     9    10     7   ar
    10    12    13    1
    11    12     7   ar
    12     7     6    1
    13    37    36    1
    14     6     3    2
    15     6     9    1
    16    21    20    1
    17    41    39    1
    18     3     4    1
    19    36    20   ar
    20    36    38   ar
    21    19    18    1
    22    20     8   ar
    23     9    18   ar
    24     9    16   ar
    25    18    32   ar
    26    17    16    1
    27    16    28   ar
    28    39    40    1
    29    39    38    1
    30    39    42    1
    31     5     1    2
    32    38    30   ar
    33    32    33    1
    34    32    26   ar
    35     4    43    1
    36     4     1    1
    37    28    26   ar
    38    28    29    1
    39     8     1    1
    40     8    34   ar
    41    26    27    1
    42     1     2    2
    43    30    34   ar
    44    30    31    1
    45    34    35    1
