@<TRIPOS>MOLECULE
?
 31 31 0 0 0
SMALL
GASTEIGER

@<TRIPOS>ATOM
      1 C          10.2988    1.7581   -1.4760 C.ar    1  LIG1        0.0516
      2 C          10.0328    1.8471   -2.8233 C.ar    1  LIG1        0.1743
      3 C          11.0537    1.7198   -3.7514 C.ar    1  LIG1        0.1944
      4 C          12.3296    1.4913   -3.3023 C.ar    1  LIG1        0.1613
      5 C          12.6183    1.3826   -1.9720 C.ar    1  LIG1       -0.0224
      6 H          13.5095    1.2154   -1.6876 H       1  LIG1        0.0647
      7 C          11.6032    1.5170   -1.0449 C.ar    1  LIG1       -0.0429
      8 H          11.7933    1.4448   -0.1168 H       1  LIG1        0.0630
      9 F           8.7857    2.0459   -3.2824 F       1  LIG1       -0.2013
     10 F          10.7760    1.8018   -5.0538 F       1  LIG1       -0.1994
     11 F          13.3016    1.3638   -4.2405 F       1  LIG1       -0.2024
     12 I           8.7253    2.0080   -0.0975 I       1  LIG1       -0.0408
     13 C           5.8604    1.5672    2.3113 C.ar    2  LIG2        0.0293
     14 H           6.2830    0.7296    2.4580 H       2  LIG2        0.0830
     15 C           4.5997    1.7486    2.8373 C.ar    2  LIG2       -0.0225
     16 H           4.1809    1.0507    3.3273 H       2  LIG2        0.0651
     17 C           3.9366    2.9788    2.6417 C.ar    2  LIG2        0.0321
     18 C           4.6355    3.9391    1.8942 C.ar    2  LIG2       -0.0225
     19 H           4.2440    4.7866    1.7155 H       2  LIG2        0.0651
     20 C           5.8878    3.6439    1.4241 C.ar    2  LIG2        0.0293
     21 H           6.3361    4.3186    0.9271 H       2  LIG2        0.0830
     22 C           2.0525    4.4871    2.9451 C.3     2  LIG2        0.0004
     23 H           2.5892    5.1951    3.3572 H       2  LIG2        0.0428
     24 H           1.1648    4.4666    3.3612 H       2  LIG2        0.0428
     25 H           1.9594    4.6630    1.9860 H       2  LIG2        0.0428
     26 C           1.9958    2.1820    3.8832 C.3     2  LIG2        0.0004
     27 H           1.7844    1.4353    3.2854 H       2  LIG2        0.0428
     28 H           1.1664    2.5544    4.2484 H       2  LIG2        0.0428
     29 H           2.5615    1.8630    4.6177 H       2  LIG2        0.0428
     30 N           6.5342    2.4870    1.6068 N.ar    2  LIG2       -0.2631
     31 N           2.7041    3.2137    3.1407 N.pl3   2  LIG2       -0.3359
@<TRIPOS>BOND
     1    10     3    1
     2    11     4    1
     3     3     4   ar
     4     3     2   ar
     5     4     5   ar
     6     9     2    1
     7     2     1   ar
     8     5     6    1
     9     5     7   ar
    10     1     7   ar
    11     1    12    1
    12     7     8    1
    13    21    20    1
    14    20    30   ar
    15    20    18   ar
    16    30    13   ar
    17    19    18    1
    18    18    17   ar
    19    25    22    1
    20    13    14    1
    21    13    15   ar
    22    17    15   ar
    23    17    31    1
    24    15    16    1
    25    22    31    1
    26    22    23    1
    27    22    24    1
    28    31    26    1
    29    27    26    1
    30    26    28    1
    31    26    29    1
