@<TRIPOS>MOLECULE
C8 H6 O4
 9 8 0 0 0
SMALL
GASTEIGER

@<TRIPOS>ATOM
      1 O          -0.0039    3.0332    0.9490 O.2     1  LIG1       -0.2451
      2 O           2.0032    2.0552    0.7462 O.3     1  LIG1       -0.4771
      3 C           0.7584    2.1004    1.1808 C.2     1  LIG1        0.3373
      4 C           0.3241    0.8634    1.8904 C.2     1  LIG1        0.0689
      5 C           0.8570   -0.3525    1.4569 C.2     1  LIG1       -0.0650
      6 C           0.3465   -1.5646    1.9296 C.3     1  LIG1       -0.0082
      7 H           2.1590    2.7734    0.2019 H       1  LIG1        0.2954
      8 H           1.6364   -0.3486    0.7509 H       1  LIG1        0.0583
      9 H           0.7688   -2.4602    1.5956 H       1  LIG1        0.0355
@<TRIPOS>BOND
     1     7     2    1
     2     2     3    1
     3     8     5    1
     4     1     3    2
     5     3     4    1
     6     5     4    2
     7     5     6    1
     8     9     6    1
