@<TRIPOS>MOLECULE
C14H16N2O4S
 37 39 0 0 0
SMALL
GASTEIGER

@<TRIPOS>ATOM
      1 S           0.4046    4.0900    9.6307 S.3     1  LIG1       -0.1238
      2 O           2.4457    7.3243   10.3533 O.3     1  LIG1       -0.4685
      3 O          -0.0634    7.9526    7.2089 O.2     1  LIG1       -0.2697
      4 O           2.3769   12.1930    6.4531 O.2     1  LIG1       -0.1261
      5 O           3.6626   12.9726    8.0186 O.2     1  LIG1       -0.1261
      6 N           0.7585    6.5560    8.8204 N.am    1  LIG1       -0.2465
      7 N           2.9591   12.0898    7.5324 N.pl3   1  LIG1        0.0565
      8 C          -0.1412    5.4253    8.4827 C.3     1  LIG1        0.0822
      9 C           0.0707    4.9343    7.0514 C.3     1  LIG1       -0.0341
     10 H           1.0287    4.8126    6.8864 H       1  LIG1        0.0259
     11 H          -0.2874    5.5951    6.4224 H       1  LIG1        0.0259
     12 H          -0.3933    4.0801    6.9269 H       1  LIG1        0.0259
     13 C          -1.6057    5.7780    8.7262 C.3     1  LIG1       -0.0341
     14 H          -1.8707    6.5052    8.1247 H       1  LIG1        0.0259
     15 H          -1.7229    6.0635    9.6558 H       1  LIG1        0.0259
     16 H          -2.1648    4.9912    8.5537 H       1  LIG1        0.0259
     17 C           1.3938    5.1947   10.7008 C.3     1  LIG1        0.0670
     18 C           2.5425    4.3989   11.3186 C.3     1  LIG1       -0.0456
     19 H           3.0753    3.9880   10.6068 H       1  LIG1        0.0245
     20 H           2.1789    3.6990   11.9004 H       1  LIG1        0.0245
     21 H           3.1105    4.9998   11.8451 H       1  LIG1        0.0245
     22 C           0.5483    5.8699   11.7815 C.3     1  LIG1       -0.0456
     23 H           0.1064    5.1851   12.3254 H       1  LIG1        0.0245
     24 H          -0.1289    6.4389   11.3582 H       1  LIG1        0.0245
     25 H           1.1250    6.4188   12.3523 H       1  LIG1        0.0245
     26 C           1.9028    6.1953    9.6624 C.3     1  LIG1        0.1850
     27 H           2.6127    5.7688    9.1027 H       1  LIG1        0.0967
     28 C           0.7451    7.7090    8.1011 C.2     1  LIG1        0.2539
     29 C           1.7711    8.7032    8.5150 C.ar    1  LIG1        0.0808
     30 C           2.5746    8.4674    9.6342 C.ar    1  LIG1        0.1354
     31 C           3.4894    9.4229   10.0853 C.ar    1  LIG1       -0.0169
     32 H           4.0218    9.2537   10.8537 H       1  LIG1        0.0655
     33 C           3.6094   10.6205    9.3985 C.ar    1  LIG1       -0.0280
     34 H           4.2258   11.2823    9.6882 H       1  LIG1        0.0641
     35 C           2.8123   10.8395    8.2755 C.ar    1  LIG1        0.1271
     36 C           1.8932    9.9042    7.8257 C.ar    1  LIG1       -0.0158
     37 H           1.3567   10.0803    7.0618 H       1  LIG1        0.0649
@<TRIPOS>BOND
     1    11     9    1
     2     4     7    2
     3    10     9    1
     4    12     9    1
     5     9     8    1
     6    37    36    1
     7     3    28    2
     8     7     5    2
     9     7    35    1
    10    36    35   ar
    11    36    29   ar
    12    28    29    1
    13    28     6   am
    14    14    13    1
    15    35    33   ar
    16     8    13    1
    17     8     6    1
    18     8     1    1
    19    29    30   ar
    20    16    13    1
    21    13    15    1
    22     6    26    1
    23    27    26    1
    24    33    34    1
    25    33    31   ar
    26     1    17    1
    27    30    31   ar
    28    30     2    1
    29    26     2    1
    30    26    17    1
    31    31    32    1
    32    19    18    1
    33    17    18    1
    34    17    22    1
    35    18    21    1
    36    18    20    1
    37    24    22    1
    38    22    23    1
    39    22    25    1
