@<TRIPOS>MOLECULE
4,4'-bipyridine 1,2,3,4-butanetetracarboxylic acid
 23 22 0 0 0
SMALL
GASTEIGER

@<TRIPOS>ATOM
      1 O           1.0448    3.4995    2.1121 O.3     1  LIG1       -0.4806
      2 O          -0.6567    2.2338    5.6898 O.3     1  LIG1       -0.4804
      3 O           1.7985    3.0666    4.1689 O.2     1  LIG1       -0.2510
      4 O           0.6191    3.2741    7.2136 O.2     1  LIG1       -0.2507
      5 N           2.9280    1.9963    1.2502 N.ar    2  LIG2       -0.2632
      6 C           4.1387    1.0664   -0.5981 C.ar    2  LIG2       -0.0359
      7 C           5.0141    0.4215    0.2530 C.ar    2  LIG2       -0.0149
      8 C           3.1088    1.8383   -0.0697 C.ar    2  LIG2        0.0281
      9 C           0.9750    3.5735    3.4112 C.2     1  LIG1        0.3055
     10 C          -0.0307    3.3061    6.1983 C.2     1  LIG1        0.3092
     11 C           3.7789    1.3831    2.0744 C.ar    2  LIG2        0.0281
     12 C           4.8276    0.5944    1.6235 C.ar    2  LIG2       -0.0359
     13 C          -0.2459    4.3315    3.9002 C.3     1  LIG1        0.0584
     14 C          -0.3045    4.5558    5.3956 C.3     1  LIG1        0.0796
     15 H           5.4296    0.1722    2.3273 H       2  LIG2        0.0639
     16 H           2.4553    2.2734   -0.6746 H       2  LIG2        0.0830
     17 H           3.6047    1.5322    3.0019 H       2  LIG2        0.0830
     18 H           4.1728    0.9794   -1.5291 H       2  LIG2        0.0639
     19 H           0.3596    5.1903    5.6553 H       1  LIG1        0.0427
     20 H          -1.0238    3.7799    3.5866 H       1  LIG1        0.0386
     21 H          -0.4544    1.4388    6.2174 H       1  LIG1        0.2951
     22 H          -0.3043    5.1648    3.3504 H       1  LIG1        0.0386
     23 H           1.9163    2.8116    1.7427 H       1  LIG1        0.2951
@<TRIPOS>BOND
     1    18     6    1
     2    16     8    1
     3     6     8   ar
     4     6     7   ar
     5     8     5   ar
     6     7    12   ar
     7     5    11   ar
     8    12    11   ar
     9    12    15    1
    10    23     1    1
    11    11    17    1
    12     1     9    1
    13    22    13    1
    14     9    13    1
    15     9     3    2
    16    20    13    1
    17    13    14    1
    18    14    19    1
    19    14    10    1
    20     2    10    1
    21     2    21    1
    22    10     4    2
