@<TRIPOS>MOLECULE
?
 46 43 0 0 0
SMALL
GASTEIGER

@<TRIPOS>ATOM
      1 C           4.1874    2.0994   10.1835 C.2     1  LIG1       -0.0101
      2 H           3.6626    2.8673   10.1752 H       1  LIG1        0.0778
      3 C           4.3575    1.4111   11.3207 C.2     1  LIG1       -0.0625
      4 H           3.9584    1.7039   12.1073 H       1  LIG1        0.0591
      5 C           5.1225    0.2722   11.3179 C.3     1  LIG1        0.0078
      6 H           5.2636   -0.2050   12.1046 H       1  LIG1        0.0395
      7 C           5.6761   -0.1497   10.1352 C.2     1  LIG1       -0.0625
      8 H           6.1768   -0.9323   10.1048 H       1  LIG1        0.0591
      9 C           5.4904    0.5708    9.0296 C.2     1  LIG1       -0.0101
     10 H           5.8692    0.2885    8.2280 H       1  LIG1        0.0778
     11 C           3.3911    6.2323    7.1759 C.2     2  LIG2        0.1094
     12 C           2.4283    5.5567    7.8731 C.2     2  LIG2       -0.0359
     13 H           2.5823    4.6819    8.1479 H       2  LIG2        0.0635
     14 C           3.8797    9.6071    5.6253 C.2     2  LIG2       -0.0650
     15 H           4.5342   10.0821    5.1670 H       2  LIG2        0.0615
     16 C           4.1211    8.3260    5.9903 C.2     2  LIG2       -0.0698
     17 H           4.9265    7.9260    5.7521 H       2  LIG2        0.0582
     18 C           3.1631    7.5806    6.7327 C.3     2  LIG2        0.0644
     19 C           2.1100    6.6202   12.5574 C.2     3  LIG3        0.1237
     20 C           1.8139    7.2759   11.3962 C.2     3  LIG3       -0.0517
     21 H           2.1961    6.9918   10.5975 H       3  LIG3        0.0595
     22 C           0.9334    8.3806   11.3951 C.3     3  LIG3       -0.0070
     23 H           0.7296    8.8125   10.5975 H       3  LIG3        0.0355
     24 C           1.8397    6.3979   15.0357 C.2     3  LIG3       -0.0514
     25 H           2.4112    5.6644   15.0427 H       3  LIG3        0.0624
     26 C           1.5564    7.0449   13.8095 C.2     3  LIG3        0.0111
     27 C           5.9548    3.3488    2.6141 C.cat   4  LIG4        0.3387
     28 N           4.7772    1.6775    9.0592 N.pl3   1  LIG1       -0.3269
     29 H           4.6881    2.1389    8.3397 H       1  LIG1        0.1510
     30 N           6.8304    3.0735    3.5608 N.pl3   4  LIG4       -0.2920
     31 H           6.6504    3.2610    4.3803 H       4  LIG4        0.2545
     32 H           7.5818    2.7064    3.3577 H       4  LIG4        0.2545
     33 N           6.2206    3.0176    1.3548 N.pl3   4  LIG4       -0.2920
     34 H           5.6407    3.1694    0.7383 H       4  LIG4        0.2545
     35 H           6.9725    2.6503    1.1565 H       4  LIG4        0.2545
     36 N           4.8034    3.9105    2.9181 N.pl3   4  LIG4       -0.2920
     37 H           4.6202    4.0988    3.7372 H       4  LIG4        0.2545
     38 H           4.2346    4.0886    2.2978 H       4  LIG4        0.2545
     39 O           4.9961    5.2207    5.4007 O.2     2  LIG2       -0.1400
     40 O           5.9860    6.2685    7.3288 O.2     2  LIG2       -0.1400
     41 O           4.8666    4.1480    7.5702 O.3     2  LIG2       -0.0429
     42 O           3.6266    5.1384   11.0667 O.2     3  LIG3       -0.1397
     43 O           2.4327    4.0655   12.8808 O.2     3  LIG3       -0.1397
     44 O           4.3292    5.5077   13.3514 O.3     3  LIG3       -0.0426
     45 S           4.9338    5.3912    6.8437 S.3     2  LIG2        0.1367
     46 S           3.2176    5.2290   12.4590 S.3     3  LIG3        0.1399
@<TRIPOS>BOND
     1    34    33    1
     2    35    33    1
     3    33    27    2
     4    38    36    1
     5    27    36    1
     6    27    30    1
     7    36    37    1
     8    32    30    1
     9    30    31    1
    10    15    14    1
    11    39    45    2
    12    14    16    2
    13    17    16    1
    14    16    18    1
    15    18    11    1
    16    45    11    1
    17    45    40    2
    18    45    41    1
    19    11    12    2
    20    12    13    1
    21    10     9    1
    22    29    28    1
    23     9    28    1
    24     9     7    2
    25    28     1    1
    26     8     7    1
    27     7     5    1
    28     2     1    1
    29     1     3    2
    30    23    22    1
    31    21    20    1
    32    42    46    2
    33     5     3    1
    34     5     6    1
    35     3     4    1
    36    22    20    1
    37    20    19    2
    38    46    19    1
    39    46    43    2
    40    46    44    1
    41    19    26    1
    42    26    24    2
    43    24    25    1
