@<TRIPOS>MOLECULE
?
 14 14 0 0 0
SMALL
GASTEIGER

@<TRIPOS>ATOM
      1 CL          2.2089    6.9197    3.0969 Cl      1  LIG1       -0.0811
      2 CL          1.7066    7.5653    8.4387 Cl      1  LIG1       -0.0811
      3 O           4.0208    8.1341    6.0667 O.3     1  LIG1       -0.4771
      4 O           2.3901    9.4365    5.2748 O.2     1  LIG1       -0.2450
      5 N           0.2060    4.9849    5.8727 N.ar    1  LIG1       -0.2603
      6 C           1.3614    6.7440    6.9637 C.ar    1  LIG1        0.0744
      7 C           1.9200    7.1710    5.7737 C.ar    1  LIG1        0.0982
      8 C           2.8089    8.3928    5.6806 C.2     1  LIG1        0.3397
      9 C           1.5767    6.4604    4.6344 C.ar    1  LIG1        0.0744
     10 C           0.7244    5.3742    4.7139 C.ar    1  LIG1        0.0467
     11 C           0.5103    5.6528    6.9759 C.ar    1  LIG1        0.0467
     12 H           0.1213    5.3523    7.7447 H       1  LIG1        0.0844
     13 H           0.4932    4.8933    3.9288 H       1  LIG1        0.0844
     14 H           4.5077    8.8788    6.0286 H       1  LIG1        0.2954
@<TRIPOS>BOND
     1     1     9    1
     2    13    10    1
     3     9    10   ar
     4     9     7   ar
     5    10     5   ar
     6     4     8    2
     7     8     7    1
     8     8     3    1
     9     7     6   ar
    10     5    11   ar
    11    14     3    1
    12     6    11   ar
    13     6     2    1
    14    11    12    1
