@<TRIPOS>MOLECULE
?
 46 43 0 0 0
SMALL
GASTEIGER

@<TRIPOS>ATOM
      1 C           0.5544    6.1648    4.8334 C.2     1  LIG1       -0.0101
      2 H           0.7145    5.7759    5.6628 H       1  LIG1        0.0778
      3 C           0.9992    5.5644    3.6900 C.2     1  LIG1       -0.0625
      4 H           1.4983    4.7816    3.7359 H       1  LIG1        0.0591
      5 C           0.7075    6.1203    2.4809 C.3     1  LIG1        0.0078
      6 H           0.9969    5.7093    1.6979 H       1  LIG1        0.0395
      7 C          -0.0216    7.2977    2.4170 C.2     1  LIG1       -0.0625
      8 H          -0.2380    7.6774    1.5951 H       1  LIG1        0.0591
      9 C          -0.4147    7.8899    3.5818 C.2     1  LIG1       -0.0101
     10 H          -0.8895    8.6888    3.5623 H       1  LIG1        0.0778
     11 C           3.0024    0.9902    1.2599 C.2     2  LIG2        0.1237
     12 C           3.3109    0.3351    2.4219 C.2     2  LIG2       -0.0517
     13 H           2.9409    0.6215    3.2250 H       2  LIG2        0.0595
     14 C           4.1869   -0.7715    2.4109 C.3     2  LIG2       -0.0070
     15 H           4.3916   -1.2096    3.2055 H       2  LIG2        0.0355
     16 C           3.2561    1.2041   -1.2307 C.2     2  LIG2       -0.0514
     17 H           2.6758    1.9308   -1.2370 H       2  LIG2        0.0624
     18 C           3.5534    0.5643   -0.0022 C.2     2  LIG2        0.0111
     19 C           1.9632    1.3658    6.6589 C.2     3  LIG3        0.1237
     20 C           2.8915    2.0394    5.9069 C.2     3  LIG3       -0.0517
     21 H           2.7160    2.9055    5.6184 H       3  LIG3        0.0595
     22 C           4.1138    1.4187    5.5717 C.3     3  LIG3       -0.0070
     23 H           4.7473    1.8917    5.0839 H       3  LIG3        0.0355
     24 C           1.3030   -0.7051    7.9346 C.2     3  LIG3       -0.0514
     25 H           0.5079   -0.3050    8.2033 H       3  LIG3        0.0624
     26 C           2.2234    0.0325    7.1313 C.2     3  LIG3        0.0111
     27 C           5.9042    3.4076    2.6719 C.cat   4  LIG4        0.3387
     28 N          -0.1141    7.3163    4.7433 N.pl3   1  LIG1       -0.3269
     29 H          -0.3619    7.7052    5.4698 H       1  LIG1        0.1510
     30 N           6.1454    3.0228    1.4197 N.pl3   4  LIG4       -0.2920
     31 H           6.8874    2.6344    1.2245 H       4  LIG4        0.2545
     32 H           5.5589    3.1633    0.8066 H       4  LIG4        0.2545
     33 N           6.8058    3.1933    3.6187 N.pl3   4  LIG4       -0.2920
     34 H           6.6386    3.4213    4.4314 H       4  LIG4        0.2545
     35 H           7.5584    2.8270    3.4207 H       4  LIG4        0.2545
     36 N           4.7417    3.9734    2.9733 N.pl3   4  LIG4       -0.2920
     37 H           4.5723    4.2016    3.7844 H       4  LIG4        0.2545
     38 H           4.1581    4.1116    2.3573 H       4  LIG4        0.2545
     39 O           1.5041    2.4821    2.7570 O.3     2  LIG2       -0.0426
     40 O           0.7760    2.1211    0.4712 O.2     2  LIG2       -0.1397
     41 O           2.6952    3.5537    0.9308 O.2     2  LIG2       -0.1397
     42 O          -0.6322    1.2247    6.5306 O.2     3  LIG3       -0.1397
     43 O           0.3362    2.3702    8.4362 O.3     3  LIG3       -0.0426
     44 O           0.4097    3.4059    6.2289 O.2     3  LIG3       -0.1397
     45 S           1.9017    2.3928    1.3582 S.3     2  LIG2        0.1399
     46 S           0.3946    2.1766    6.9855 S.3     3  LIG3        0.1399
@<TRIPOS>BOND
     1    17    16    1
     2    16    18    2
     3    18    11    1
     4    40    45    2
     5    32    30    1
     6    41    45    2
     7    31    30    1
     8    11    45    1
     9    11    12    2
    10    45    39    1
    11    30    27    2
    12     8     7    1
    13     6     5    1
    14    38    36    1
    15    14    12    1
    16    14    15    1
    17     7     5    1
    18     7     9    2
    19    12    13    1
    20     5     3    1
    21    27    36    1
    22    27    33    1
    23    36    37    1
    24    35    33    1
    25    10     9    1
    26     9    28    1
    27    33    34    1
    28     3     4    1
    29     3     1    2
    30    28     1    1
    31    28    29    1
    32     1     2    1
    33    23    22    1
    34    22    20    1
    35    21    20    1
    36    20    19    2
    37    44    46    2
    38    42    46    2
    39    19    46    1
    40    19    26    1
    41    46    43    1
    42    26    24    2
    43    24    25    1
