@<TRIPOS>MOLECULE
5-(3, 4, 5-Trimethoxybenzyl)-2, 4-pyrimidinediamine
 39 40 0 0 0
SMALL
GASTEIGER

@<TRIPOS>ATOM
      1 O          -2.3195    5.8504    7.5321 O.3     1  LIG1       -0.4885
      2 O          -1.3602    3.4993    6.6803 O.3     1  LIG1       -0.4913
      3 N           0.8381    3.4299    0.1210 N.ar    1  LIG1       -0.1999
      4 O          -3.0368    7.7618    5.8336 O.3     1  LIG1       -0.4913
      5 N           1.0952    1.3480   -0.8448 N.pl3   1  LIG1       -0.3274
      6 N          -0.6850    1.6346    0.5709 N.ar    1  LIG1       -0.2227
      7 N           0.5327    5.5204    1.0036 N.pl3   1  LIG1       -0.3428
      8 C          -1.7314    4.3873    5.7080 C.ar    1  LIG1        0.1654
      9 C          -1.4603    2.5180    1.2216 C.ar    1  LIG1        0.0379
     10 H          -2.2653    2.1935    1.6071 H       1  LIG1        0.0834
     11 C          -2.1750    4.8223    1.9540 C.3     1  LIG1        0.0025
     12 H          -3.0817    4.4743    1.7640 H       1  LIG1        0.0363
     13 H          -2.0845    5.6809    1.4700 H       1  LIG1        0.0363
     14 C          -2.6084    6.5930    5.2739 C.ar    1  LIG1        0.1654
     15 C          -1.1778    3.8557    1.3722 C.ar    1  LIG1        0.0146
     16 C           0.4060    2.1649   -0.0208 C.ar    1  LIG1        0.2142
     17 C          -1.6611    4.1417    4.3387 C.ar    1  LIG1       -0.0126
     18 H          -1.3225    3.3137    4.0187 H       1  LIG1        0.0658
     19 C          -2.2106    5.6100    6.1815 C.ar    1  LIG1        0.2035
     20 C           0.0689    4.2649    0.8405 C.ar    1  LIG1        0.1247
     21 C          -2.5601    6.3396    3.9039 C.ar    1  LIG1       -0.0126
     22 H          -2.8485    7.0022    3.2870 H       1  LIG1        0.0658
     23 C          -0.7457    2.2904    6.2525 C.3     1  LIG1        0.0790
     24 H          -1.3671    1.7915    5.6825 H       1  LIG1        0.0660
     25 H          -0.5132    1.7482    7.0344 H       1  LIG1        0.0660
     26 H           0.0669    2.4981    5.7459 H       1  LIG1        0.0660
     27 C          -2.0892    5.1147    3.4418 C.ar    1  LIG1       -0.0358
     28 C          -3.3652    8.8232    4.9347 C.3     1  LIG1        0.0790
     29 H          -2.5828    9.0402    4.3855 H       1  LIG1        0.0660
     30 H          -3.6334    9.6137    5.4471 H       1  LIG1        0.0660
     31 H          -4.1035    8.5432    4.3543 H       1  LIG1        0.0660
     32 C          -1.0771    6.2440    8.1348 C.3     1  LIG1        0.0791
     33 H          -0.4226    5.5217    8.0355 H       1  LIG1        0.0660
     34 H          -1.2195    6.4273    9.0868 H       1  LIG1        0.0660
     35 H          -0.7410    7.0518    7.6933 H       1  LIG1        0.0660
     36 H           1.8664    1.6292   -1.1637 H       1  LIG1        0.1452
     37 H           0.1299    6.0900    1.5712 H       1  LIG1        0.1437
     38 H           0.9290    0.4539   -0.8130 H       1  LIG1        0.1452
     39 H           1.3412    5.7199    0.6797 H       1  LIG1        0.1437
@<TRIPOS>BOND
     1    36     5    1
     2     5    38    1
     3     5    16    1
     4    16     3   ar
     5    16     6   ar
     6     3    20   ar
     7     6     9   ar
     8    39     7    1
     9    20     7    1
    10    20    15   ar
    11     7    37    1
    12     9    15   ar
    13     9    10    1
    14    15    11    1
    15    13    11    1
    16    12    11    1
    17    11    27    1
    18    22    21    1
    19    27    21   ar
    20    27    17   ar
    21    21    14   ar
    22    18    17    1
    23    17     8   ar
    24    31    28    1
    25    29    28    1
    26    28    30    1
    27    28     4    1
    28    14     4    1
    29    14    19   ar
    30    24    23    1
    31     8    19   ar
    32     8     2    1
    33    26    23    1
    34    19     1    1
    35    23     2    1
    36    23    25    1
    37     1    32    1
    38    35    32    1
    39    33    32    1
    40    32    34    1
