@<TRIPOS>MOLECULE
Isonicotinohydrazide-Benzene-1,3-diol
 31 31 0 0 0
SMALL
GASTEIGER

@<TRIPOS>ATOM
      1 O           1.0757    7.0461    8.9453 O.2     1  LIG1       -0.2689
      2 N           3.1485    6.6792    7.1973 N.3     1  LIG1       -0.2541
      3 O           0.4592    5.5249    6.1557 O.3     2  LIG2       -0.5066
      4 N           3.2503    6.6729    8.6018 N.am    1  LIG1       -0.2496
      5 H           4.0231    6.5588    8.9616 H       1  LIG1        0.1690
      6 C           2.1994    6.8354    9.3864 C.2     1  LIG1        0.2575
      7 C           2.4327    6.7244   10.8489 C.ar    1  LIG1        0.0408
      8 O          -0.9859    6.6244    1.7958 O.3     2  LIG2       -0.5066
      9 C           0.5770    5.4406    4.8004 C.ar    2  LIG2        0.1203
     10 C          -0.2933    6.0743    3.9503 C.ar    2  LIG2        0.0213
     11 H          -0.9931    6.5830    4.2919 H       2  LIG2        0.0691
     12 C           3.4088    5.9286   11.3983 C.ar    1  LIG1       -0.0314
     13 H           3.9963    5.4547   10.8547 H       1  LIG1        0.0640
     14 C           1.7622    4.5728    2.9497 C.ar    2  LIG2       -0.0549
     15 H           2.4657    4.0684    2.6109 H       2  LIG2        0.0620
     16 C          -0.1269    5.9550    2.5949 C.ar    2  LIG2        0.1203
     17 N           2.7165    6.4947   13.5911 N.ar    1  LIG1       -0.2632
     18 C           1.6166    4.6947    4.3095 C.ar    2  LIG2       -0.0199
     19 H           2.2137    4.2780    4.8876 H       2  LIG2        0.0654
     20 C           3.4983    5.8489   12.7647 C.ar    1  LIG1        0.0283
     21 H           4.1564    5.3015   13.1271 H       1  LIG1        0.0830
     22 C           1.6152    7.3983   11.6992 C.ar    1  LIG1       -0.0314
     23 H           0.9392    7.9451   11.3691 H       1  LIG1        0.0640
     24 C           0.8940    5.1784    2.0810 C.ar    2  LIG2       -0.0199
     25 H           0.9900    5.0694    1.1623 H       2  LIG2        0.0654
     26 C           1.7970    7.2634   13.0383 C.ar    1  LIG1        0.0283
     27 H           1.2363    7.7452   13.6036 H       1  LIG1        0.0830
     28 H           2.9213    7.5727    6.9348 H       1  LIG1        0.1405
     29 H           2.4677    6.1671    7.0045 H       1  LIG1        0.1405
     30 H          -0.7474    6.5298    0.8136 H       2  LIG2        0.2921
     31 H          -0.3485    5.9447    6.4509 H       2  LIG2        0.2921
@<TRIPOS>BOND
     1    30     8    1
     2    25    24    1
     3     8    16    1
     4    24    16   ar
     5    24    14   ar
     6    16    10   ar
     7    15    14    1
     8    14    18   ar
     9    10    11    1
    10    10     9   ar
    11    18     9   ar
    12    18    19    1
    13     9     3    1
    14     3    31    1
    15    28     2    1
    16    29     2    1
    17     2     4    1
    18     4     5    1
    19     4     6   am
    20     1     6    2
    21     6     7    1
    22     7    12   ar
    23     7    22   ar
    24    13    12    1
    25    23    22    1
    26    12    20   ar
    27    22    26   ar
    28    20    21    1
    29    20    17   ar
    30    26    17   ar
    31    26    27    1
