@<TRIPOS>MOLECULE
4,4'-bipyridinium benzene-1,2,4,5-tetracarboxylate
 40 41 0 0 0
SMALL
GASTEIGER

@<TRIPOS>ATOM
      1 S           4.3739    2.2622    8.1124 S.3     1  LIG1        0.1397
      2 O           8.1939    6.7607    8.3602 O.3     1  LIG1       -0.5059
      3 O           8.4736    6.2676   10.9109 O.2     1  LIG1       -0.2450
      4 N           0.7339    5.3469    3.4470 N.ar    2  LIG2       -0.2632
      5 N           2.7331    5.8707   10.1253 N.pl3   2  LIG2       -0.3269
      6 O           3.1770    2.7705    7.4540 O.2     1  LIG1       -0.1397
      7 O           7.1134    4.7621   11.8624 O.3     1  LIG1       -0.4770
      8 O           5.0701    1.2942    7.2451 O.2     1  LIG1       -0.1397
      9 O           4.1615    1.7636    9.4531 O.3     1  LIG1       -0.0427
     10 C           5.7852    4.3740    7.1107 C.ar    1  LIG1       -0.0308
     11 C           6.9647    5.0462    9.5420 C.ar    1  LIG1        0.1020
     12 C           5.4820    3.6440    8.2492 C.ar    1  LIG1        0.1206
     13 C           7.2883    5.7540    8.3721 C.ar    1  LIG1        0.1309
     14 C           1.5078    5.6230    6.1047 C.ar    2  LIG2       -0.0293
     15 C           7.5839    5.4074   10.8455 C.2     1  LIG1        0.3404
     16 C           1.1142    5.2468    8.5457 C.2     2  LIG2       -0.0546
     17 C           6.6677    5.4247    7.1667 C.ar    1  LIG1       -0.0175
     18 C           1.9170    5.7437    7.5161 C.3     2  LIG2        0.0513
     19 C           6.0533    3.9821    9.4590 C.ar    1  LIG1       -0.0168
     20 C           2.4492    5.4201    5.1009 C.ar    2  LIG2       -0.0392
     21 C           3.5235    6.3769    9.1711 C.2     2  LIG2       -0.0095
     22 C           1.5365    5.3131    9.8385 C.2     2  LIG2       -0.0095
     23 C           3.1349    6.3194    7.8654 C.2     2  LIG2       -0.0546
     24 C           0.1677    5.7112    5.7284 C.ar    2  LIG2       -0.0392
     25 C          -0.1795    5.5809    4.4066 C.ar    2  LIG2        0.0278
     26 C           2.0244    5.2806    3.7952 C.ar    2  LIG2        0.0278
     27 H           5.8591    3.4920   10.2212 H       1  LIG1        0.0647
     28 H           5.4368    4.1532    6.2535 H       1  LIG1        0.0638
     29 H           2.6326    5.1016    3.0728 H       2  LIG2        0.0829
     30 H           1.0292    5.0366   10.5555 H       2  LIG2        0.0778
     31 H           6.9079    5.9331    6.3829 H       1  LIG1        0.0655
     32 H           3.0596    5.9042   11.0299 H       2  LIG2        0.1510
     33 H           3.6421    6.6895    7.2454 H       2  LIG2        0.0597
     34 H           4.3061    6.7704    9.4665 H       2  LIG2        0.0778
     35 H           0.3175    4.8649    8.3991 H       2  LIG2        0.0597
     36 H          -1.0859    5.7065    4.0863 H       2  LIG2        0.0829
     37 H           3.4025    5.3369    5.3478 H       2  LIG2        0.0636
     38 H          -0.5012    5.9663    6.4152 H       2  LIG2        0.0636
     39 H           7.4565    5.0670   12.8520 H       1  LIG1        0.2954
     40 H           8.5261    6.7848    9.1970 H       1  LIG1        0.2922
@<TRIPOS>BOND
     1    29    26    1
     2     4    26   ar
     3     4    25   ar
     4    26    20   ar
     5    36    25    1
     6    25    24   ar
     7    20    37    1
     8    20    14   ar
     9    24    14   ar
    10    24    38    1
    11    14    18    1
    12    28    10    1
    13    31    17    1
    14    10    17   ar
    15    10    12   ar
    16    17    13   ar
    17     8     1    2
    18    33    23    1
    19     6     1    2
    20    18    23    1
    21    18    16    1
    22    23    21    2
    23     1    12    1
    24     1     9    1
    25    12    19   ar
    26     2    13    1
    27     2    40    1
    28    13    11   ar
    29    35    16    1
    30    16    22    2
    31    21    34    1
    32    21     5    1
    33    19    11   ar
    34    19    27    1
    35    11    15    1
    36    22     5    1
    37    22    30    1
    38     5    32    1
    39    15     3    2
    40    15     7    1
    41     7    39    1
