@<TRIPOS>MOLECULE
C19 H17 N O4 S
 42 46 0 0 0
SMALL
GASTEIGER

@<TRIPOS>ATOM
      1 S           5.4918    7.1924   10.5356 S.O2    1  LIG1        0.0448
      2 O           6.3669    7.7881    9.5734 O.2     1  LIG1       -0.1552
      3 O           6.0411    6.4739   11.6429 O.2     1  LIG1       -0.1552
      4 O           3.1366    5.2860   11.5082 O.3     1  LIG1       -0.3487
      5 O          -1.6897    4.1137   15.3617 O.2     1  LIG1       -0.4629
      6 N           4.5249    6.1454    9.7391 N.pl3   1  LIG1       -0.1786
      7 C           4.4325    8.4502   11.1408 C.3     1  LIG1        0.0739
      8 H           4.9659    9.1381   11.5895 H       1  LIG1        0.0482
      9 H           3.7961    8.0631   11.7767 H       1  LIG1        0.0482
     10 H           3.9426    8.8532   10.3937 H       1  LIG1        0.0482
     11 C           3.9102    6.3768    8.4791 C.ar    1  LIG1        0.0573
     12 C           4.0867    7.4327    7.5923 C.ar    1  LIG1       -0.0387
     13 H           4.6737    8.1527    7.7932 H       1  LIG1        0.0637
     14 C           3.3705    7.3950    6.3975 C.ar    1  LIG1       -0.0599
     15 H           3.4710    8.1041    5.7741 H       1  LIG1        0.0618
     16 C           2.5157    6.3473    6.1000 C.ar    1  LIG1       -0.0614
     17 H           2.0386    6.3440    5.2788 H       1  LIG1        0.0618
     18 C           2.3527    5.2981    7.0011 C.ar    1  LIG1       -0.0564
     19 H           1.7677    4.5772    6.7994 H       1  LIG1        0.0621
     20 C           3.0542    5.3184    8.1948 C.ar    1  LIG1       -0.0174
     21 C           3.0413    4.3168    9.3198 C.3     1  LIG1        0.0332
     22 H           3.3875    3.4260    9.0238 H       1  LIG1        0.0392
     23 C           3.9505    4.9531   10.4006 C.3     1  LIG1        0.1523
     24 H           4.6730    4.3179   10.6719 H       1  LIG1        0.0831
     25 C           1.7504    5.2977   11.0928 C.3     1  LIG1        0.0867
     26 H           1.5317    6.1772   10.6703 H       1  LIG1        0.0647
     27 C           1.6930    4.1885   10.0392 C.3     1  LIG1       -0.0115
     28 H           0.9398    4.3303    9.4131 H       1  LIG1        0.0301
     29 H           1.5980    3.2992   10.4632 H       1  LIG1        0.0301
     30 C           0.8508    5.0632   12.2788 C.ar    1  LIG1       -0.0180
     31 C          -0.4350    5.6183   12.2660 C.ar    1  LIG1       -0.0526
     32 H          -0.6798    6.1982   11.5548 H       1  LIG1        0.0622
     33 C          -1.3635    5.3465   13.2620 C.ar    1  LIG1       -0.0184
     34 H          -2.2427    5.7055   13.2409 H       1  LIG1        0.0654
     35 C          -0.9361    4.5283   14.2801 C.ar    1  LIG1        0.1348
     36 C          -0.8461    3.3292   16.1137 C.ar    1  LIG1        0.0931
     37 H          -1.1022    2.9133   16.9280 H       1  LIG1        0.1029
     38 C           0.3703    3.2155   15.5762 C.ar    1  LIG1       -0.0161
     39 H           1.1050    2.7236   15.9242 H       1  LIG1        0.0655
     40 C           0.3446    3.9912   14.3588 C.ar    1  LIG1        0.0205
     41 C           1.2491    4.2492   13.3289 C.ar    1  LIG1       -0.0453
     42 H           2.1218    3.8748   13.3469 H       1  LIG1        0.0628
@<TRIPOS>BOND
     1    17    16    1
     2    15    14    1
     3    16    14   ar
     4    16    18   ar
     5    14    12   ar
     6    19    18    1
     7    18    20   ar
     8    12    13    1
     9    12    11   ar
    10    20    11   ar
    11    20    21    1
    12    11     6    1
    13    22    21    1
    14    21    27    1
    15    21    23    1
    16    28    27    1
    17     2     1    2
    18     6    23    1
    19     6     1    1
    20    27    29    1
    21    27    25    1
    22    10     7    1
    23    23    24    1
    24    23     4    1
    25     1     7    1
    26     1     3    2
    27    26    25    1
    28    25     4    1
    29    25    30    1
    30     7     8    1
    31     7     9    1
    32    32    31    1
    33    31    30   ar
    34    31    33   ar
    35    30    41   ar
    36    34    33    1
    37    33    35   ar
    38    41    42    1
    39    41    40   ar
    40    35    40   ar
    41    35     5   ar
    42    40    38   ar
    43     5    36   ar
    44    38    39    1
    45    38    36   ar
    46    36    37    1
