@<TRIPOS>MOLECULE
?
 32 33 0 0 0
SMALL
GASTEIGER

@<TRIPOS>ATOM
      1 C           1.4707    6.8727    3.5142 C.ar    1  LIG1       -0.0073
      2 C           2.5091    7.0908    2.6043 C.ar    1  LIG1       -0.0521
      3 H           3.3476    6.7213    2.7609 H       1  LIG1        0.0624
      4 C           2.2944    7.8507    1.4730 C.ar    1  LIG1       -0.0472
      5 H           2.9882    8.0093    0.8750 H       1  LIG1        0.0629
      6 C           1.0587    8.3650    1.2439 C.ar    1  LIG1        0.0179
      7 C           0.0081    8.1638    2.1072 C.ar    1  LIG1       -0.0472
      8 H          -0.8267    8.5333    1.9312 H       1  LIG1        0.0629
      9 C           0.2155    7.4055    3.2333 C.ar    1  LIG1       -0.0521
     10 H          -0.4920    7.2462    3.8158 H       1  LIG1        0.0624
     11 C           1.7126    6.0669    4.7206 C.2     1  LIG1        0.0305
     12 H           2.4572    5.5099    4.7478 H       1  LIG1        0.0831
     13 C           1.2269    5.1863    6.8149 C.3     1  LIG1        0.1512
     14 H           2.0547    4.7082    6.6013 H       1  LIG1        0.0691
     15 C           0.1048    4.1608    6.9495 C.2     1  LIG1        0.2395
     16 C           1.4428    5.9558    8.1144 C.ar    1  LIG1       -0.0144
     17 C           2.7309    6.2867    8.5157 C.ar    1  LIG1       -0.0561
     18 H           3.4561    6.0154    8.0005 H       1  LIG1        0.0621
     19 C           2.9470    7.0071    9.6599 C.ar    1  LIG1       -0.0614
     20 H           3.8156    7.2156    9.9201 H       1  LIG1        0.0618
     21 C           1.9032    7.4144   10.4106 C.ar    1  LIG1       -0.0617
     22 H           2.0546    7.9110   11.1821 H       1  LIG1        0.0618
     23 C           0.6173    7.1005   10.0430 C.ar    1  LIG1       -0.0614
     24 H          -0.1005    7.3846   10.5621 H       1  LIG1        0.0618
     25 C           0.3971    6.3639    8.9040 C.ar    1  LIG1       -0.0561
     26 H          -0.4729    6.1394    8.6658 H       1  LIG1        0.0621
     27 N           0.9390    6.1080    5.7224 N.2     1  LIG1       -0.2737
     28 N          -1.0910    4.4932    6.4732 N.am    1  LIG1       -0.3273
     29 H          -1.2356    5.2483    6.0706 H       1  LIG1        0.1450
     30 H          -1.6941    3.9201    6.6013 H       1  LIG1        0.1450
     31 O           0.3189    3.0886    7.5125 O.2     1  LIG1       -0.2733
     32 BR          0.7539    9.4417   -0.3000 Br      1  LIG1       -0.0503
@<TRIPOS>BOND
     1    32     6    1
     2     5     4    1
     3     6     4   ar
     4     6     7   ar
     5     4     2   ar
     6     8     7    1
     7     7     9   ar
     8     2     3    1
     9     2     1   ar
    10     9     1   ar
    11     9    10    1
    12     1    11    1
    13    11    12    1
    14    11    27    2
    15    27    13    1
    16    29    28    1
    17    28    30    1
    18    28    15   am
    19    14    13    1
    20    13    15    1
    21    13    16    1
    22    15    31    2
    23    18    17    1
    24    16    17   ar
    25    16    25   ar
    26    17    19   ar
    27    26    25    1
    28    25    23   ar
    29    19    20    1
    30    19    21   ar
    31    23    21   ar
    32    23    24    1
    33    21    22    1
