@<TRIPOS>MOLECULE
?
 106 116 0 0 0
SMALL
GASTEIGER

@<TRIPOS>ATOM
      1 O          -6.9955  -14.9992   -5.1690 O.2     1  LIG1       -0.2666
      2 O          -2.3797    0.2397   -4.7976 O.2     2  LIG2       -0.2666
      3 N          -8.5231  -13.2851   -5.4430 N.ar    1  LIG1       -0.2597
      4 N          -8.7505  -11.6459   -3.6987 N.ar    1  LIG1       -0.2290
      5 N          -4.0138   -3.2106   -3.3859 N.ar    2  LIG2       -0.2290
      6 N          -3.8265   -1.5382   -5.1027 N.ar    2  LIG2       -0.2597
      7 C          -7.7693  -13.1925   -0.5392 C.ar    1  LIG1       -0.0597
      8 H          -7.8548  -13.0292    0.3719 H       1  LIG1        0.0618
      9 C          -8.2722  -12.2891   -1.4373 C.ar    1  LIG1       -0.0355
     10 H          -8.6568  -11.4982   -1.1342 H       1  LIG1        0.0639
     11 C          -8.2094  -12.5540   -2.8234 C.ar    1  LIG1        0.0785
     12 C          -7.6084  -13.7441   -3.2522 C.ar    1  LIG1        0.0653
     13 C          -7.6311  -14.0968   -4.6644 C.ar    1  LIG1        0.2665
     14 C          -8.9387  -13.7103   -6.7294 C.ar    1  LIG1        0.0668
     15 C          -9.5707  -12.8348   -7.5726 C.ar    1  LIG1        0.0145
     16 C         -10.0263  -13.2909   -8.9250 C.ar    1  LIG1       -0.0153
     17 C         -11.0274  -14.2563   -9.0650 C.ar    1  LIG1       -0.0539
     18 H         -11.4112  -14.6403   -8.3112 H       1  LIG1        0.0624
     19 C         -11.4466  -14.6395  -10.3274 C.ar    1  LIG1       -0.0612
     20 H         -12.1150  -15.2795  -10.4146 H       1  LIG1        0.0618
     21 C         -10.8847  -14.0832  -11.4554 C.ar    1  LIG1       -0.0617
     22 H         -11.1666  -14.3557  -12.2995 H       1  LIG1        0.0618
     23 C          -7.1264  -14.3623   -0.9780 C.ar    1  LIG1       -0.0609
     24 H          -6.7700  -14.9589   -0.3602 H       1  LIG1        0.0618
     25 C          -7.0264  -14.6184   -2.3253 C.ar    1  LIG1       -0.0473
     26 H          -6.5708  -15.3737   -2.6217 H       1  LIG1        0.0626
     27 C          -9.9017  -13.1219  -11.3317 C.ar    1  LIG1       -0.0612
     28 H          -9.5252  -12.7386  -12.0903 H       1  LIG1        0.0618
     29 C          -9.4743  -12.7272  -10.0669 C.ar    1  LIG1       -0.0539
     30 H          -8.8123  -12.0793   -9.9870 H       1  LIG1        0.0624
     31 C          -9.8171  -11.4718   -7.1401 C.ar    1  LIG1       -0.0047
     32 C          -9.5080  -11.1339   -5.8664 C.ar    1  LIG1       -0.0104
     33 H          -9.7007  -10.2698   -5.5803 H       1  LIG1        0.0660
     34 C          -8.9023  -12.0290   -4.9405 C.ar    1  LIG1        0.1420
     35 C         -10.4773  -10.4239   -7.9717 C.ar    1  LIG1       -0.0171
     36 C         -11.6594  -10.6518   -8.6724 C.ar    1  LIG1       -0.0540
     37 H         -12.0059  -11.5122   -8.7296 H       1  LIG1        0.0624
     38 C         -12.3214   -9.5955   -9.2853 C.ar    1  LIG1       -0.0612
     39 H         -13.1062   -9.7528   -9.7592 H       1  LIG1        0.0618
     40 C         -11.8167   -8.3058   -9.1935 C.ar    1  LIG1       -0.0617
     41 H         -12.2769   -7.5967   -9.5826 H       1  LIG1        0.0618
     42 C         -10.6310   -8.0762   -8.5237 C.ar    1  LIG1       -0.0612
     43 H         -10.2827   -7.2159   -8.4786 H       1  LIG1        0.0618
     44 C          -9.9617   -9.1232   -7.9203 C.ar    1  LIG1       -0.0540
     45 H          -9.1606   -8.9633   -7.4769 H       1  LIG1        0.0624
     46 C          -8.8532  -15.1601   -7.0529 C.ar    1  LIG1       -0.0004
     47 C          -9.6253  -16.0600   -6.3213 C.ar    1  LIG1       -0.0526
     48 H         -10.0981  -15.7664   -5.5757 H       1  LIG1        0.0624
     49 C          -9.6889  -17.3938   -6.7024 C.ar    1  LIG1       -0.0611
     50 H         -10.2136  -17.9907   -6.2195 H       1  LIG1        0.0618
     51 C          -8.9724  -17.8356   -7.8034 C.ar    1  LIG1       -0.0617
     52 H          -9.0151  -18.7282   -8.0602 H       1  LIG1        0.0618
     53 C          -8.1931  -16.9469   -8.5181 C.ar    1  LIG1       -0.0611
     54 H          -7.7093  -17.2473   -9.2548 H       1  LIG1        0.0618
     55 C          -8.1240  -15.6136   -8.1499 C.ar    1  LIG1       -0.0526
     56 H          -7.5920  -15.0230   -8.6343 H       1  LIG1        0.0624
     57 C          -7.1864   -6.4310   -8.9436 C.ar    2  LIG2       -0.0617
     58 H          -7.6702   -7.1157   -9.3478 H       2  LIG2        0.0618
     59 C          -6.0589   -6.7240   -8.1939 C.ar    2  LIG2       -0.0612
     60 H          -5.7733   -7.6047   -8.1067 H       2  LIG2        0.0618
     61 C          -5.3578   -5.7018   -7.5728 C.ar    2  LIG2       -0.0540
     62 H          -4.5903   -5.9014   -7.0887 H       2  LIG2        0.0624
     63 C          -5.7897   -4.3759   -7.6653 C.ar    2  LIG2       -0.0171
     64 C          -5.1177   -3.3513   -6.8207 C.ar    2  LIG2       -0.0047
     65 C          -4.7994   -3.6879   -5.5483 C.ar    2  LIG2       -0.0104
     66 H          -4.9949   -4.5528   -5.2642 H       2  LIG2        0.0660
     67 C          -4.1884   -2.8088   -4.6211 C.ar    2  LIG2        0.1420
     68 C          -3.4727   -2.3157   -2.5001 C.ar    2  LIG2        0.0785
     69 C          -3.4982   -2.6275   -1.1172 C.ar    2  LIG2       -0.0355
     70 H          -3.8637   -3.4326   -0.8274 H       2  LIG2        0.0639
     71 C          -2.9826   -1.7384   -0.2078 C.ar    2  LIG2       -0.0597
     72 H          -3.0335   -1.9337    0.6996 H       2  LIG2        0.0618
     73 C          -2.3797   -0.5418   -0.6229 C.ar    2  LIG2       -0.0609
     74 H          -2.0196    0.0421    0.0046 H       2  LIG2        0.0618
     75 C          -5.7524   -0.6112  -11.1932 C.ar    2  LIG2       -0.0617
     76 H          -5.8997   -0.2805  -12.0508 H       2  LIG2        0.0618
     77 C          -4.8204   -1.6067  -10.9894 C.ar    2  LIG2       -0.0612
     78 H          -4.3657   -1.9738  -11.7138 H       2  LIG2        0.0618
     79 C          -4.5603   -2.0606   -9.7088 C.ar    2  LIG2       -0.0539
     80 H          -3.9301   -2.7313   -9.5779 H       2  LIG2        0.0624
     81 C          -5.2332   -1.5247   -8.6169 C.ar    2  LIG2       -0.0153
     82 C          -6.2098   -0.5613   -8.8360 C.ar    2  LIG2       -0.0539
     83 H          -6.6936   -0.2224   -8.1183 H       2  LIG2        0.0624
     84 C          -6.4672   -0.1020  -10.1232 C.ar    2  LIG2       -0.0612
     85 H          -7.1191    0.5451  -10.2659 H       2  LIG2        0.0618
     86 C          -4.8558   -1.9884   -7.2421 C.ar    2  LIG2        0.0145
     87 C          -2.9653   -0.7126   -4.3078 C.ar    2  LIG2        0.2665
     88 C          -2.8989   -1.1023   -2.9071 C.ar    2  LIG2        0.0653
     89 C          -2.3233   -0.2341   -1.9632 C.ar    2  LIG2       -0.0473
     90 H          -1.9050    0.5471   -2.2451 H       2  LIG2        0.0626
     91 C          -4.2402   -1.1174   -6.3905 C.ar    2  LIG2        0.0668
     92 C          -4.1875    0.3358   -6.7492 C.ar    2  LIG2       -0.0004
     93 C          -5.1213    1.1901   -6.1623 C.ar    2  LIG2       -0.0526
     94 H          -5.6233    0.8997   -5.4362 H       2  LIG2        0.0624
     95 C          -5.3032    2.4716   -6.6597 C.ar    2  LIG2       -0.0611
     96 H          -5.9388    3.0339   -6.2799 H       2  LIG2        0.0618
     97 C          -4.5303    2.9100   -7.7281 C.ar    2  LIG2       -0.0617
     98 H          -4.6630    3.7613   -8.0788 H       2  LIG2        0.0618
     99 C          -3.5664    2.0850   -8.2713 C.ar    2  LIG2       -0.0611
    100 H          -3.0262    2.3966   -8.9620 H       2  LIG2        0.0618
    101 C          -3.3963    0.7923   -7.7936 C.ar    2  LIG2       -0.0526
    102 H          -2.7562    0.2345   -8.1718 H       2  LIG2        0.0624
    103 C          -7.5911   -5.1119   -9.0901 C.ar    2  LIG2       -0.0612
    104 H          -8.3276   -4.9095   -9.6197 H       2  LIG2        0.0618
    105 C          -6.9027   -4.0925   -8.4502 C.ar    2  LIG2       -0.0540
    106 H          -7.1883   -3.2122   -8.5460 H       2  LIG2        0.0624
@<TRIPOS>BOND
     1    22    21    1
     2    28    27    1
     3    76    75    1
     4    78    77    1
     5    21    27   ar
     6    21    19   ar
     7    27    29   ar
     8    75    77   ar
     9    75    84   ar
    10    77    79   ar
    11    20    19    1
    12    19    17   ar
    13    85    84    1
    14    84    82   ar
    15    29    30    1
    16    29    16   ar
    17    39    38    1
    18    79    80    1
    19    79    81   ar
    20   104   103    1
    21    41    40    1
    22    58    57    1
    23    38    40   ar
    24    38    36   ar
    25    54    53    1
    26    40    42   ar
    27   103    57   ar
    28   103   105   ar
    29    17    16   ar
    30    17    18    1
    31   100    99    1
    32    57    59   ar
    33    16    15    1
    34    82    81   ar
    35    82    83    1
    36    37    36    1
    37    36    35   ar
    38    56    55    1
    39    81    86    1
    40   106   105    1
    41    42    43    1
    42    42    44   ar
    43    53    55   ar
    44    53    51   ar
    45   105    63   ar
    46    99   101   ar
    47    99    97   ar
    48    59    60    1
    49    59    61   ar
    50   102   101    1
    51    55    46   ar
    52    98    97    1
    53    52    51    1
    54    35    44   ar
    55    35    31    1
    56    44    45    1
    57    51    49   ar
    58   101    92   ar
    59    97    95   ar
    60    63    61   ar
    61    63    64    1
    62    61    62    1
    63    15    31   ar
    64    15    14   ar
    65    86    64   ar
    66    86    91   ar
    67    31    32   ar
    68    46    14    1
    69    46    47   ar
    70    64    65   ar
    71    92    91    1
    72    92    93   ar
    73    14     3   ar
    74    49    47   ar
    75    49    50    1
    76    95    96    1
    77    95    93   ar
    78    91     6   ar
    79    47    48    1
    80    93    94    1
    81    32    33    1
    82    32    34   ar
    83    65    66    1
    84    65    67   ar
    85     3    34   ar
    86     3    13   ar
    87     1    13    2
    88     6    67   ar
    89     6    87   ar
    90    34     4   ar
    91     2    87    2
    92    13    12   ar
    93    67     5   ar
    94    87    88   ar
    95     4    11   ar
    96     5    68   ar
    97    12    11   ar
    98    12    25   ar
    99    88    68   ar
   100    88    89   ar
   101    11     9   ar
   102    26    25    1
   103    68    69   ar
   104    25    23   ar
   105    90    89    1
   106    89    73   ar
   107     9    10    1
   108     9     7   ar
   109    69    70    1
   110    69    71   ar
   111    23     7   ar
   112    23    24    1
   113    73    71   ar
   114    73    74    1
   115     7     8    1
   116    71    72    1
