@<TRIPOS>MOLECULE
?
 69 72 0 0 0
SMALL
GASTEIGER

@<TRIPOS>ATOM
      1 P           2.2152    9.3008    2.5778 P.3     1  LIG1        0.1716
      2 O           5.3579   10.7372   11.8083 O.2     2  LIG2       -0.2522
      3 O           1.7850    8.2431    1.6034 O.2     1  LIG1       -0.3065
      4 N           4.0571   12.5360   12.4252 N.am    2  LIG2       -0.2692
      5 N           5.2124   11.3918   14.0100 N.am    2  LIG2       -0.2692
      6 F           3.1758   12.7434    6.4351 F       2  LIG2       -0.1659
      7 F           6.1087   10.1870   18.7335 F       2  LIG2       -0.1659
      8 F           6.5437    8.1241   18.4034 F       2  LIG2       -0.1659
      9 C           3.1497    8.8769    5.2085 C.ar    1  LIG1       -0.0507
     10 H           2.4162    9.3600    5.5152 H       1  LIG1        0.0625
     11 C           4.9210   11.4889   12.6651 C.2     2  LIG2        0.3081
     12 C           3.7835   12.3032    9.9825 C.ar    2  LIG2       -0.0288
     13 H           4.1577   11.4519    9.9814 H       2  LIG2        0.0642
     14 C           3.3241    8.6650    3.8403 C.ar    1  LIG1        0.0199
     15 F           4.6522   11.5373    7.3637 F       2  LIG2       -0.1659
     16 C           4.4268    7.9275    3.3925 C.ar    1  LIG1       -0.0507
     17 H           4.5472    7.7821    2.4814 H       1  LIG1        0.0625
     18 C           0.7987   10.0972    3.3521 C.ar    1  LIG1        0.0199
     19 C          -0.4687    9.5552    3.1333 C.ar    1  LIG1       -0.0507
     20 H          -0.5624    8.7598    2.6607 H       1  LIG1        0.0625
     21 C           3.0398   14.2785   11.1494 C.ar    2  LIG2       -0.0404
     22 H           2.9151   14.7457   11.9437 H       2  LIG2        0.0636
     23 C           3.4548   12.0661    7.5402 C.3     2  LIG2        0.4175
     24 C           3.6474   13.0129   11.1758 C.ar    2  LIG2        0.0353
     25 C           7.1657    9.8983   13.8837 C.ar    2  LIG2       -0.0404
     26 H           7.2094    9.9909   12.9594 H       2  LIG2        0.0636
     27 C           4.1431   11.3479    2.4032 C.ar    1  LIG1       -0.0507
     28 H           4.3997   11.1204    3.2674 H       1  LIG1        0.0625
     29 C           5.3415    7.4113    4.2995 C.ar    1  LIG1       -0.0611
     30 H           6.0683    6.9152    3.9976 H       1  LIG1        0.0618
     31 C           6.0896   10.3666   15.9897 C.ar    2  LIG2       -0.0288
     32 H           5.4092   10.7715   16.4777 H       2  LIG2        0.0642
     33 F           8.1386    9.5355   18.7163 F       2  LIG2       -0.1659
     34 C           6.1556   10.5356   14.6011 C.ar    2  LIG2        0.0353
     35 C           3.3528   12.8856    8.7921 C.ar    2  LIG2        0.0566
     36 C           5.1680    7.6369    5.6604 C.ar    1  LIG1       -0.0617
     37 H           5.7852    7.3001    6.2679 H       1  LIG1        0.0618
     38 C           2.7864   14.1524    8.7557 C.ar    2  LIG2       -0.0500
     39 H           2.5221   14.5331    7.9501 H       2  LIG2        0.0623
     40 C          -1.4569   11.4020    4.3337 C.ar    1  LIG1       -0.0617
     41 H          -2.2130   11.8400    4.6522 H       1  LIG1        0.0618
     42 C           3.1201   10.6382    1.7694 C.ar    1  LIG1        0.0199
     43 C          -1.5910   10.2128    3.6263 C.ar    1  LIG1       -0.0611
     44 H          -2.4369    9.8546    3.4812 H       1  LIG1        0.0618
     45 C           2.6242   14.8367    9.9537 C.ar    2  LIG2       -0.0595
     46 H           2.2316   15.6798    9.9522 H       2  LIG2        0.0618
     47 C          -0.1976   11.9374    4.5660 C.ar    1  LIG1       -0.0611
     48 H          -0.1083   12.7280    5.0491 H       1  LIG1        0.0618
     49 C           2.7460   10.9936    0.4693 C.ar    1  LIG1       -0.0507
     50 H           2.0611   10.5312    0.0425 H       1  LIG1        0.0625
     51 C           7.0439    9.5930   16.6353 C.ar    2  LIG2        0.0566
     52 C           8.1086    9.1235   14.5517 C.ar    2  LIG2       -0.0595
     53 H           8.7806    8.7032   14.0667 H       2  LIG2        0.0618
     54 C           4.7781   12.3953    1.7403 C.ar    1  LIG1       -0.0611
     55 H           5.4568   12.8684    2.1654 H       1  LIG1        0.0618
     56 C           4.0765    8.3633    6.1142 C.ar    1  LIG1       -0.0611
     57 H           3.9629    8.5086    7.0260 H       1  LIG1        0.0618
     58 C           4.4017   12.7354    0.4485 C.ar    1  LIG1       -0.0617
     59 H           4.8281   13.4361    0.0106 H       1  LIG1        0.0618
     60 C           3.3932   12.0339   -0.1880 C.ar    1  LIG1       -0.0611
     61 H           3.1479   12.2578   -1.0568 H       1  LIG1        0.0618
     62 C           0.9284   11.2905    4.0761 C.ar    1  LIG1       -0.0507
     63 H           1.7726   11.6498    4.2286 H       1  LIG1        0.0625
     64 C           8.0635    8.9687   15.9262 C.ar    2  LIG2       -0.0500
     65 H           8.7025    8.4570   16.3662 H       2  LIG2        0.0623
     66 C           6.9636    9.3665   18.1152 C.3     2  LIG2        0.4175
     67 F           2.6117   11.0394    7.5604 F       2  LIG2       -0.1659
     68 H           4.8497   11.9481   14.5274 H       2  LIG2        0.1564
     69 H           3.9222   13.0631   13.1068 H       2  LIG2        0.1564
@<TRIPOS>BOND
     1    61    60    1
     2    60    58   ar
     3    60    49   ar
     4    59    58    1
     5    50    49    1
     6    58    54   ar
     7    49    42   ar
     8     3     1    2
     9    54    55    1
    10    54    27   ar
    11    42    27   ar
    12    42     1    1
    13    27    28    1
    14    17    16    1
    15     1    18    1
    16     1    14    1
    17    20    19    1
    18    19    18   ar
    19    19    43   ar
    20    18    62   ar
    21    16    14   ar
    22    16    29   ar
    23    44    43    1
    24    43    40   ar
    25    14     9   ar
    26    30    29    1
    27    62    63    1
    28    62    47   ar
    29    29    36   ar
    30    40    47   ar
    31    40    41    1
    32    47    48    1
    33     9    10    1
    34     9    56   ar
    35    36    56   ar
    36    36    37    1
    37    56    57    1
    38     6    23    1
    39    15    23    1
    40    23    67    1
    41    23    35    1
    42    39    38    1
    43    38    35   ar
    44    38    45   ar
    45    35    12   ar
    46    46    45    1
    47    45    21   ar
    48    13    12    1
    49    12    24   ar
    50    21    24   ar
    51    21    22    1
    52    24     4    1
    53     2    11    2
    54     4    11   am
    55     4    69    1
    56    11     5   am
    57    26    25    1
    58    25    52   ar
    59    25    34   ar
    60     5    68    1
    61     5    34    1
    62    53    52    1
    63    52    64   ar
    64    34    31   ar
    65    64    65    1
    66    64    51   ar
    67    31    32    1
    68    31    51   ar
    69    51    66    1
    70    66     8    1
    71    66    33    1
    72    66     7    1
