@<TRIPOS>MOLECULE
4-Amino-N-methyl-3H-1,3,4-thiadiazol-2-ylidene-benzenesulfonamide-4-Aminobenzoicacid
 44 45 0 0 0
SMALL
GASTEIGER

@<TRIPOS>ATOM
      1 S           5.3952   11.8268    3.1453 S.O2    1  LIG1        0.0935
      2 S           7.1340    9.1600    2.3435 S.2     1  LIG1       -0.0349
      3 O           3.3324    6.8997    8.3861 O.2     2  LIG2       -0.2451
      4 O           4.0159    5.6901   10.1425 O.3     2  LIG2       -0.4771
      5 H           3.4411    5.1707    9.8924 H       2  LIG2        0.2954
      6 O           6.6992   11.5437    3.7103 O.2     1  LIG1       -0.1483
      7 O           5.0232   13.2022    2.9450 O.2     1  LIG1       -0.1483
      8 N           6.4271    8.1881    0.0672 N.ar    1  LIG1       -0.1699
      9 N           5.2475   11.1176    1.6897 N.pl3   1  LIG1       -0.0708
     10 N           5.6944    9.3285    0.2947 N.ar    1  LIG1       -0.2551
     11 H           5.1469    9.6302   -0.3422 H       1  LIG1        0.1909
     12 C           4.2007   11.0669    4.1716 C.ar    1  LIG1        0.1106
     13 C           5.9041   10.0041    1.4283 C.ar    1  LIG1        0.1973
     14 C           5.9352   10.0066    9.5345 C.ar    2  LIG2       -0.0403
     15 H           6.0675   10.8079    9.0128 H       2  LIG2        0.0636
     16 C           6.5188    9.9392   10.8093 C.ar    2  LIG2        0.0246
     17 C           3.5726    9.2306    5.5947 C.ar    1  LIG1       -0.0392
     18 H           3.8084    8.4417    6.0676 H       1  LIG1        0.0636
     19 C           7.2112    7.9685    1.0700 C.ar    1  LIG1        0.0984
     20 C           4.5335    9.8949    4.8595 C.ar    1  LIG1       -0.0333
     21 H           5.4041    9.5317    4.7957 H       1  LIG1        0.0638
     22 C           4.9692    7.8120    9.8424 C.ar    2  LIG2        0.0589
     23 C           1.9387   10.8969    4.9598 C.ar    1  LIG1       -0.0392
     24 H           1.0502   11.1954    5.0035 H       1  LIG1        0.0636
     25 C           5.1702    8.9567    9.0642 C.ar    2  LIG2       -0.0460
     26 H           4.7769    9.0089    8.2102 H       2  LIG2        0.0626
     27 C           6.3541    8.7701   11.5694 C.ar    2  LIG2       -0.0403
     28 H           6.7643    8.7307   12.3753 H       2  LIG2        0.0636
     29 C           5.5847    7.7295   11.0939 C.ar    2  LIG2       -0.0460
     30 H           5.4152    6.9404   11.5925 H       2  LIG2        0.0626
     31 C           8.1289    6.7995    1.1643 C.3     1  LIG1       -0.0141
     32 H           8.9836    7.0443    1.4994 H       1  LIG1        0.0298
     33 H           7.7556    6.1427    1.7825 H       1  LIG1        0.0298
     34 H           8.2370    6.4079    0.2956 H       1  LIG1        0.0298
     35 N           1.3069    9.0327    6.3654 N.pl3   1  LIG1       -0.3580
     36 H           0.5217    9.4029    6.4510 H       1  LIG1        0.1423
     37 H           1.5533    8.4103    6.9419 H       1  LIG1        0.1423
     38 C           4.0509    6.7598    9.3913 C.2     2  LIG2        0.3368
     39 C           2.2578    9.7157    5.6579 C.ar    1  LIG1        0.0247
     40 N           7.1889   11.0040   11.3420 N.pl3   2  LIG2       -0.3580
     41 H           7.3168   11.7236   10.8831 H       2  LIG2        0.1423
     42 H           7.5218   10.9215   12.1228 H       2  LIG2        0.1423
     43 C           2.8993   11.5634    4.2269 C.ar    1  LIG1       -0.0333
     44 H           2.6859   12.3503    3.7567 H       1  LIG1        0.0638
@<TRIPOS>BOND
     1    11    10    1
     2     8    10   ar
     3     8    19   ar
     4    10    13   ar
     5    34    31    1
     6    19    31    1
     7    19     2   ar
     8    31    32    1
     9    31    33    1
    10    13     9    1
    11    13     2   ar
    12     9     1    1
    13     7     1    2
    14     1     6    2
    15     1    12    1
    16    44    43    1
    17    12    43   ar
    18    12    20   ar
    19    43    23   ar
    20    21    20    1
    21    20    17   ar
    22    23    24    1
    23    23    39   ar
    24    17    39   ar
    25    17    18    1
    26    39    35    1
    27    35    36    1
    28    35    37    1
    29    26    25    1
    30     3    38    2
    31    15    14    1
    32    25    14   ar
    33    25    22   ar
    34    38    22    1
    35    38     4    1
    36    14    16   ar
    37    22    29   ar
    38     5     4    1
    39    16    40    1
    40    16    27   ar
    41    41    40    1
    42    29    27   ar
    43    29    30    1
    44    40    42    1
    45    27    28    1
