@<TRIPOS>MOLECULE
?
 27 28 0 0 0
SMALL
GASTEIGER

@<TRIPOS>ATOM
      1 N          -0.5960    2.1090   11.4704 N.pl3   1  LIG1       -0.3138
      2 H          -0.9118    2.6209   10.8775 H       1  LIG1        0.1522
      3 CL         -0.1880    2.3153   16.5988 Cl      1  LIG1       -0.0835
      4 O          -2.4025    0.7858    7.9203 O.3     1  LIG1       -0.4771
      5 H          -2.8285    1.3946    7.5105 H       1  LIG1        0.2954
      6 O          -2.0060    2.5208    9.2657 O.2     1  LIG1       -0.2451
      7 C          -1.8749    1.3112    9.0178 C.2     1  LIG1        0.3386
      8 C          -1.1577    0.3711    9.8735 C.ar    1  LIG1        0.0799
      9 C          -1.0601   -0.9742    9.4881 C.ar    1  LIG1       -0.0460
     10 H          -1.4508   -1.2481    8.6663 H       1  LIG1        0.0626
     11 C          -0.4168   -1.9047   10.2644 C.ar    1  LIG1       -0.0609
     12 H          -0.3663   -2.8120    9.9879 H       1  LIG1        0.0618
     13 C           0.1630   -1.4934   11.4693 C.ar    1  LIG1       -0.0600
     14 H           0.6115   -2.1301   12.0142 H       1  LIG1        0.0618
     15 C           0.0928   -0.1809   11.8784 C.ar    1  LIG1       -0.0397
     16 H           0.4919    0.0718   12.7029 H       1  LIG1        0.0636
     17 C          -0.5575    0.7933   11.0996 C.ar    1  LIG1        0.0454
     18 C          -0.0633    2.7095   12.6302 C.ar    1  LIG1        0.0327
     19 C          -0.3059    2.2041   13.9007 C.ar    1  LIG1       -0.0222
     20 H          -0.7957    1.3982   14.0150 H       1  LIG1        0.0651
     21 C           0.1780    2.8953   15.0005 C.ar    1  LIG1        0.0427
     22 C           0.8944    4.0767   14.8644 C.ar    1  LIG1       -0.0433
     23 H           1.2286    4.5313   15.6283 H       1  LIG1        0.0632
     24 C           1.1119    4.5772   13.6005 C.ar    1  LIG1       -0.0586
     25 H           1.5837    5.3948   13.4921 H       1  LIG1        0.0619
     26 C           0.6492    3.8985   12.4831 C.ar    1  LIG1       -0.0405
     27 H           0.8185    4.2451   11.6140 H       1  LIG1        0.0636
@<TRIPOS>BOND
     1     5     4    1
     2     4     7    1
     3    10     9    1
     4     7     6    2
     5     7     8    1
     6     9     8   ar
     7     9    11   ar
     8     8    17   ar
     9    12    11    1
    10    11    13   ar
    11     2     1    1
    12    17     1    1
    13    17    15   ar
    14    13    15   ar
    15    13    14    1
    16     1    18    1
    17    27    26    1
    18    15    16    1
    19    26    18   ar
    20    26    24   ar
    21    18    19   ar
    22    25    24    1
    23    24    22   ar
    24    19    20    1
    25    19    21   ar
    26    22    21   ar
    27    22    23    1
    28    21     3    1
