@<TRIPOS>MOLECULE
?
 42 44 0 0 0
SMALL
GASTEIGER

@<TRIPOS>ATOM
      1 C           3.3610    6.2666    9.5251 C.ar    1  LIG1        0.0004
      2 C           3.2132    6.5060   10.9054 C.ar    1  LIG1       -0.0093
      3 C           4.1830    7.2859   11.5353 C.ar    1  LIG1       -0.0534
      4 H           4.1190    7.4349   12.4506 H       1  LIG1        0.0624
      5 C           5.2285    7.8380   10.8420 C.ar    1  LIG1       -0.0611
      6 H           5.8610    8.3562   11.2858 H       1  LIG1        0.0618
      7 C           5.3440    7.6241    9.4799 C.ar    1  LIG1       -0.0611
      8 H           6.0394    8.0149    9.0032 H       1  LIG1        0.0618
      9 C           4.4253    6.8326    8.8343 C.ar    1  LIG1       -0.0526
     10 H           4.5172    6.6728    7.9227 H       1  LIG1        0.0624
     11 C           2.4259    5.3723    8.8273 C.2     1  LIG1        0.0311
     12 H           1.9916    4.7159    9.3232 H       1  LIG1        0.0832
     13 C           1.2248    4.4534    7.0752 C.3     1  LIG1        0.1512
     14 H           0.9931    3.8511    7.8131 H       1  LIG1        0.0691
     15 C           1.8013    3.6109    5.9476 C.2     1  LIG1        0.2395
     16 C          -0.0410    5.1700    6.6447 C.ar    1  LIG1       -0.0144
     17 C          -1.0962    5.2411    7.5304 C.ar    1  LIG1       -0.0561
     18 H          -1.0187    4.8480    8.3698 H       1  LIG1        0.0621
     19 C          -2.2582    5.8835    7.1885 C.ar    1  LIG1       -0.0614
     20 H          -2.9592    5.9314    7.7967 H       1  LIG1        0.0618
     21 C          -1.3292    6.4210    5.0802 C.ar    1  LIG1       -0.0614
     22 H          -1.4034    6.8403    4.2528 H       1  LIG1        0.0618
     23 C          -0.1510    5.7708    5.4133 C.ar    1  LIG1       -0.0561
     24 H           0.5566    5.7415    4.8117 H       1  LIG1        0.0621
     25 C           2.0440    6.0009   11.6692 C.ar    1  LIG1       -0.0173
     26 C           0.7492    6.1839   11.2046 C.ar    1  LIG1       -0.0540
     27 H           0.6080    6.6141   10.3927 H       1  LIG1        0.0624
     28 C          -0.3349    5.7330   11.9392 C.ar    1  LIG1       -0.0612
     29 H          -1.1976    5.8519   11.6123 H       1  LIG1        0.0618
     30 C          -0.1401    5.1075   13.1550 C.ar    1  LIG1       -0.0617
     31 H          -0.8689    4.8094   13.6494 H       1  LIG1        0.0618
     32 C           1.1243    4.9283   13.6259 C.ar    1  LIG1       -0.0612
     33 H           1.2566    4.5098   14.4461 H       1  LIG1        0.0618
     34 C           2.2072    5.3584   12.9010 C.ar    1  LIG1       -0.0540
     35 H           3.0642    5.2202   13.2341 H       1  LIG1        0.0624
     36 N           2.1809    5.4480    7.5873 N.2     1  LIG1       -0.2737
     37 N           2.9734    3.9646    5.4293 N.am    1  LIG1       -0.3273
     38 O           1.1683    2.6265    5.5687 O.2     1  LIG1       -0.2733
     39 C          -2.3846    6.4550    5.9514 C.ar    1  LIG1       -0.0617
     40 H          -3.1826    6.8643    5.7048 H       1  LIG1        0.0618
     41 H           3.4400    4.7260    5.7530 H       1  LIG1        0.1450
     42 H           3.3142    3.4132    4.7723 H       1  LIG1        0.1450
@<TRIPOS>BOND
     1    22    21    1
     2    42    37    1
     3    24    23    1
     4    21    23   ar
     5    21    39   ar
     6    23    16   ar
     7    37    41    1
     8    37    15   am
     9    38    15    2
    10    40    39    1
    11    15    13    1
    12    39    19   ar
    13    16    13    1
    14    16    17   ar
    15    13    36    1
    16    13    14    1
    17    19    17   ar
    18    19    20    1
    19    17    18    1
    20    36    11    2
    21    10     9    1
    22    11    12    1
    23    11     1    1
    24     9     7   ar
    25     9     1   ar
    26     8     7    1
    27     7     5   ar
    28     1     2   ar
    29    27    26    1
    30     5     6    1
    31     5     3   ar
    32     2     3   ar
    33     2    25    1
    34    26    25   ar
    35    26    28   ar
    36     3     4    1
    37    29    28    1
    38    25    34   ar
    39    28    30   ar
    40    34    35    1
    41    34    32   ar
    42    30    32   ar
    43    30    31    1
    44    32    33    1
