@<TRIPOS>MOLECULE
(E)-1,2-di(pyridin-4-yl)diazene 1,2,4,5-benzenetetracarboxylic acid
 23 22 0 0 0
SMALL
GASTEIGER

@<TRIPOS>ATOM
      1 O           6.9338   -0.2560   15.8995 O.2     1  LIG1       -0.2499
      2 O           5.7877   -2.1217   15.4790 O.3     1  LIG1       -0.4800
      3 H           5.9606   -2.2853   16.2641 H       1  LIG1        0.2951
      4 O           1.9178    1.0173   13.6219 O.co2   1  LIG1       -0.2406
      5 O           2.1950    1.6723   11.5127 O.co2   1  LIG1       -0.2406
      6 N           9.2940   -5.5435   13.4637 N.pl3   2  LIG2       -0.3268
      7 H          10.1553   -5.9233   13.5534 H       2  LIG2        0.1510
      8 N           5.4037   -4.1700   13.1119 N.3     2  LIG2       -0.1245
      9 C           8.5220   -5.4548   14.5418 C.2     2  LIG2       -0.0085
     10 H           8.8535   -5.7323   15.3059 H       2  LIG2        0.0779
     11 C           7.2320   -4.9848   14.4322 C.2     2  LIG2       -0.0410
     12 H           6.6831   -4.9252   15.1798 H       2  LIG2        0.0608
     13 C           6.7739   -4.6041   13.1878 C.3     2  LIG2        0.1221
     14 C           7.5925   -4.6936   12.0770 C.2     2  LIG2       -0.0410
     15 H           7.2644   -4.4100   11.1957 H       2  LIG2        0.0608
     16 C           8.8705   -5.1743   12.2510 C.2     2  LIG2       -0.0085
     17 H           9.4457   -5.2737   11.5614 H       2  LIG2        0.0779
     18 C           5.8127   -0.4914   13.8055 C.3     1  LIG1        0.1276
     19 C           4.5209    0.0344   13.7450 C.2     1  LIG1       -0.0497
     20 H           4.0497    0.0535   14.4990 H       1  LIG1        0.0592
     21 C           3.9907    0.5342   12.5612 C.2     1  LIG1        0.0742
     22 C           6.2815   -0.9477   15.1575 C.2     1  LIG1        0.3176
     23 C           2.5953    1.1319   12.5401 C.2     1  LIG1        0.3871
@<TRIPOS>BOND
     1    15    14    1
     2     5    23   ar
     3    17    16    1
     4    14    16    2
     5    14    13    1
     6    16     6    1
     7    23    21    1
     8    23     4   ar
     9    21    19    2
    10     8    13    1
    11    13    11    1
    12     6     7    1
    13     6     9    1
    14    19    18    1
    15    19    20    1
    16    18    22    1
    17    11     9    2
    18    11    12    1
    19     9    10    1
    20    22     2    1
    21    22     1    2
    22     2     3    1
