@<TRIPOS>MOLECULE
?
 61 64 0 0 0
SMALL
GASTEIGER

@<TRIPOS>ATOM
      1 C           2.7041    1.2657   16.4918 C.ar    1  LIG1        0.0353
      2 C           3.7603    1.1826   15.6103 C.ar    1  LIG1       -0.0403
      3 H           3.9740    1.9037   15.0635 H       1  LIG1        0.0636
      4 C           4.5015    0.0112   15.5458 C.ar    1  LIG1       -0.0600
      5 H           5.2039   -0.0519   14.9398 H       1  LIG1        0.0618
      6 C           4.2184   -1.0482   16.3547 C.ar    1  LIG1       -0.0616
      7 H           4.7221   -1.8287   16.2995 H       1  LIG1        0.0618
      8 C           3.1867   -0.9520   17.2496 C.ar    1  LIG1       -0.0600
      9 H           3.0026   -1.6652   17.8157 H       1  LIG1        0.0618
     10 C           2.4130    0.1938   17.3219 C.ar    1  LIG1       -0.0403
     11 H           1.7038    0.2442   17.9229 H       1  LIG1        0.0636
     12 C           1.1741    2.9803   15.6076 C.2     1  LIG1        0.0212
     13 C           0.4334    4.1146   15.8185 C.2     1  LIG1        0.0294
     14 C          -0.2742    4.7386   14.7454 C.2     1  LIG1        0.1627
     15 C          -0.1527    4.1485   13.3681 C.3     1  LIG1        0.0157
     16 H           0.6267    4.5246   12.9292 H       1  LIG1        0.0350
     17 H          -0.9331    4.3957   12.8495 H       1  LIG1        0.0350
     18 C          -0.0271    2.6236   13.3868 C.3     1  LIG1       -0.0228
     19 C           1.1550    2.2658   14.2878 C.3     1  LIG1       -0.0083
     20 H           1.1399    1.3095   14.4537 H       1  LIG1        0.0331
     21 H           1.9770    2.4671   13.8137 H       1  LIG1        0.0331
     22 C          -1.3224    1.9983   13.9095 C.3     1  LIG1       -0.0591
     23 H          -2.0564    2.2690   13.3522 H       1  LIG1        0.0235
     24 H          -1.4795    2.2921   14.8107 H       1  LIG1        0.0235
     25 H          -1.2447    1.0422   13.8961 H       1  LIG1        0.0235
     26 C           0.2575    2.0971   11.9804 C.3     1  LIG1       -0.0591
     27 H           0.3779    1.1460   12.0145 H       1  LIG1        0.0235
     28 H           1.0553    2.5094   11.6409 H       1  LIG1        0.0235
     29 H          -0.4818    2.3056   11.4047 H       1  LIG1        0.0235
     30 C           0.2968    4.7009   17.1969 C.3     1  LIG1        0.0437
     31 H           0.8432    5.4995   17.2609 H       1  LIG1        0.0515
     32 H          -0.6267    4.9592   17.3433 H       1  LIG1        0.0515
     33 C           2.0041    3.1878   17.9056 C.3     1  LIG1        0.0947
     34 H           2.2205    2.5325   18.6013 H       1  LIG1        0.0713
     35 C          -0.2488    2.7594   18.6082 C.ar    1  LIG1        0.0314
     36 C          -1.4166    2.4988   17.9223 C.ar    1  LIG1       -0.0406
     37 H          -1.6488    3.0228   17.1895 H       1  LIG1        0.0636
     38 C          -2.2406    1.4676   18.3165 C.ar    1  LIG1       -0.0600
     39 H          -3.0253    1.3037   17.8460 H       1  LIG1        0.0618
     40 C          -1.9246    0.6792   19.3894 C.ar    1  LIG1       -0.0616
     41 H          -2.4640   -0.0423   19.6231 H       1  LIG1        0.0618
     42 C          -0.8004    0.9703   20.1148 C.ar    1  LIG1       -0.0600
     43 H          -0.5935    0.4653   20.8674 H       1  LIG1        0.0618
     44 C           0.0218    2.0019   19.7404 C.ar    1  LIG1       -0.0406
     45 H           0.7733    2.1979   20.2522 H       1  LIG1        0.0636
     46 C           3.1169    4.2177   17.8905 C.3     1  LIG1       -0.0173
     47 H           3.9575    3.7708   17.7031 H       1  LIG1        0.0299
     48 H           2.9511    4.8496   17.1730 H       1  LIG1        0.0299
     49 C           3.2452    4.9742   19.1922 C.3     1  LIG1       -0.0501
     50 H           2.4282    5.4783   19.3375 H       1  LIG1        0.0266
     51 H           3.3229    4.3323   19.9143 H       1  LIG1        0.0266
     52 C           4.4052    5.9191   19.2702 C.3     1  LIG1       -0.0558
     53 H           5.2283    5.4072   19.2276 H       1  LIG1        0.0263
     54 H           4.3834    6.5071   18.4997 H       1  LIG1        0.0263
     55 C           4.4183    6.7471   20.5013 C.3     1  LIG1       -0.0653
     56 H           3.6825    7.3628   20.4801 H       1  LIG1        0.0230
     57 H           5.2431    7.2359   20.5516 H       1  LIG1        0.0230
     58 H           4.3363    6.1783   21.2712 H       1  LIG1        0.0230
     59 N           1.9262    2.4567   16.6115 N.pl3   1  LIG1       -0.2841
     60 N           0.7036    3.7575   18.2327 N.pl3   1  LIG1       -0.3065
     61 O          -0.9471    5.7547   14.9415 O.2     1  LIG1       -0.2923
@<TRIPOS>BOND
     1    29    26    1
     2    28    26    1
     3    26    27    1
     4    26    18    1
     5    17    15    1
     6    16    15    1
     7    23    22    1
     8    15    18    1
     9    15    14    1
    10    18    22    1
    11    18    19    1
    12    21    19    1
    13    25    22    1
    14    22    24    1
    15    19    20    1
    16    19    12    1
    17    14    61    2
    18    14    13    1
    19     5     4    1
    20     3     2    1
    21     4     2   ar
    22     4     6   ar
    23    12    13    2
    24    12    59    1
    25     2     1   ar
    26    13    30    1
    27     7     6    1
    28     6     8   ar
    29     1    59    1
    30     1    10   ar
    31    59    33    1
    32    48    46    1
    33    37    36    1
    34    30    31    1
    35    30    32    1
    36    30    60    1
    37     8    10   ar
    38     8     9    1
    39    10    11    1
    40    47    46    1
    41    39    38    1
    42    46    33    1
    43    46    49    1
    44    33    60    1
    45    33    34    1
    46    36    38   ar
    47    36    35   ar
    48    60    35    1
    49    38    40   ar
    50    54    52    1
    51    35    44   ar
    52    49    52    1
    53    49    50    1
    54    49    51    1
    55    53    52    1
    56    52    55    1
    57    40    41    1
    58    40    42   ar
    59    44    42   ar
    60    44    45    1
    61    42    43    1
    62    56    55    1
    63    55    57    1
    64    55    58    1
