@<TRIPOS>MOLECULE
4514141.cif
 36 38 0 0 0
SMALL
GASTEIGER

@<TRIPOS>ATOM
      1 C           3.7316    6.3739    1.4926 C.ar    1  LIG1       -0.0253
      2 C           3.2018    7.2868    0.5836 C.ar    1  LIG1       -0.0546
      3 H           3.6525    8.1087    0.4289 H       1  LIG1        0.0623
      4 C           2.0232    7.0144   -0.0999 C.ar    1  LIG1       -0.0612
      5 H           1.6798    7.6468   -0.7197 H       1  LIG1        0.0618
      6 C           1.3480    5.8291    0.1175 C.ar    1  LIG1       -0.0617
      7 H           0.5464    5.6413   -0.3559 H       1  LIG1        0.0618
      8 C           1.8503    4.9133    1.0336 C.ar    1  LIG1       -0.0612
      9 H           1.3866    4.1001    1.1943 H       1  LIG1        0.0618
     10 C           3.0278    5.1835    1.7133 C.ar    1  LIG1       -0.0546
     11 H           3.3627    4.5517    2.3390 H       1  LIG1        0.0623
     12 C           5.0169    6.6711    2.1379 C.2     1  LIG1       -0.0582
     13 H           5.3852    7.5356    1.9987 H       1  LIG1        0.0620
     14 C           5.7075    5.8291    2.9017 C.2     1  LIG1       -0.0798
     15 H           5.3175    4.9813    3.0782 H       1  LIG1        0.0575
     16 C           7.0195    6.1009    3.4923 C.3     1  LIG1       -0.0152
     17 H           7.4008    7.0046    3.2999 H       1  LIG1        0.0349
     18 C           8.0290    4.9755    3.6035 C.3     1  LIG1       -0.0388
     19 H           7.7534    4.0777    3.2895 H       1  LIG1        0.0277
     20 H           8.9818    5.1950    3.4459 H       1  LIG1        0.0277
     21 C           7.3913    5.5025    4.8566 C.3     1  LIG1       -0.0090
     22 H           7.9939    6.0854    5.4016 H       1  LIG1        0.0355
     23 C           6.4015    4.7383    5.6653 C.ar    1  LIG1       -0.0435
     24 C           5.8761    3.5011    5.3031 C.ar    1  LIG1       -0.0583
     25 H           6.1557    3.0916    4.4928 H       1  LIG1        0.0620
     26 C           4.9456    2.8561    6.1146 C.ar    1  LIG1       -0.0612
     27 H           4.5859    2.0181    5.8475 H       1  LIG1        0.0618
     28 C           4.5433    3.4280    7.3042 C.ar    1  LIG1       -0.0588
     29 H           3.9061    2.9822    7.8501 H       1  LIG1        0.0620
     30 C           5.0653    4.6524    7.7090 C.ar    1  LIG1       -0.0502
     31 C           5.9861    5.2917    6.8841 C.ar    1  LIG1       -0.0554
     32 H           6.3437    6.1292    7.1552 H       1  LIG1        0.0623
     33 C           4.6544    5.2739    9.0180 C.3     1  LIG1       -0.0397
     34 H           4.8855    6.2259    9.0144 H       1  LIG1        0.0278
     35 H           5.1228    4.8264    9.7536 H       1  LIG1        0.0278
     36 H           3.6871    5.1731    9.1382 H       1  LIG1        0.0278
@<TRIPOS>BOND
     1     5     4    1
     2     7     6    1
     3     4     6   ar
     4     4     2   ar
     5     6     8   ar
     6     3     2    1
     7     2     1   ar
     8     8     9    1
     9     8    10   ar
    10     1    10   ar
    11     1    12    1
    12    10    11    1
    13    13    12    1
    14    12    14    2
    15    14    15    1
    16    14    16    1
    17    19    18    1
    18    17    16    1
    19    20    18    1
    20    16    18    1
    21    16    21    1
    22    18    21    1
    23    25    24    1
    24    21    22    1
    25    21    23    1
    26    24    23   ar
    27    24    26   ar
    28    23    31   ar
    29    27    26    1
    30    26    28   ar
    31    31    32    1
    32    31    30   ar
    33    28    30   ar
    34    28    29    1
    35    30    33    1
    36    34    33    1
    37    33    36    1
    38    33    35    1
