@<TRIPOS>MOLECULE
C17 H15 N O2 S2
 37 39 0 0 0
SMALL
GASTEIGER

@<TRIPOS>ATOM
      1 S           6.0111    1.4551    7.0063 S.O2    1  LIG1        0.0206
      2 S           8.2860    2.7359    8.5526 S.2     1  LIG1       -0.0488
      3 N           7.8719    3.1464    6.0072 N.ar    1  LIG1       -0.2219
      4 O           5.9959    0.7337    5.7645 O.2     1  LIG1       -0.1674
      5 O           6.0339    0.7200    8.2481 O.2     1  LIG1       -0.1674
      6 C           7.4517    2.5031    7.0409 C.ar    1  LIG1        0.2161
      7 C           8.9580    3.9392    6.3712 C.ar    1  LIG1        0.0803
      8 C           9.3445    3.8322    7.7223 C.ar    1  LIG1        0.0408
      9 C           4.6760    2.6209    7.0130 C.3     1  LIG1        0.0765
     10 H           4.7518    3.2090    7.8059 H       1  LIG1        0.0508
     11 H           4.7256    3.1881    6.2028 H       1  LIG1        0.0508
     12 C           3.3336    1.8853    7.0447 C.3     1  LIG1       -0.0145
     13 H           3.2576    1.3044    6.2465 H       1  LIG1        0.0323
     14 H           3.2930    1.3087    7.8483 H       1  LIG1        0.0323
     15 C          -0.9635    3.4045    8.9812 C.ar    1  LIG1       -0.0546
     16 H          -0.8123    2.7166    9.6186 H       1  LIG1        0.0623
     17 C          10.4394    4.5473    8.2240 C.ar    1  LIG1       -0.0458
     18 H          10.7106    4.4621    9.1304 H       1  LIG1        0.0629
     19 C           1.2359    2.8600    7.9925 C.2     1  LIG1       -0.0585
     20 H           1.3532    2.2601    8.7198 H       1  LIG1        0.0620
     21 C           0.0230    3.6821    8.0239 C.ar    1  LIG1       -0.0253
     22 C           2.1915    2.8526    7.0673 C.2     1  LIG1       -0.0819
     23 H           2.1465    3.5036    6.3766 H       1  LIG1        0.0573
     24 C          11.1067    5.3768    7.3536 C.ar    1  LIG1       -0.0606
     25 H          11.8553    5.8692    7.6693 H       1  LIG1        0.0618
     26 C          -0.2387    4.6974    7.0999 C.ar    1  LIG1       -0.0546
     27 H           0.4071    4.9056    6.4348 H       1  LIG1        0.0623
     28 C           9.6491    4.8005    5.5145 C.ar    1  LIG1       -0.0351
     29 H           9.3881    4.8892    4.6055 H       1  LIG1        0.0639
     30 C          10.7144    5.5186    6.0098 C.ar    1  LIG1       -0.0597
     31 H          11.1879    6.1140    5.4404 H       1  LIG1        0.0618
     32 C          -1.4292    5.4037    7.1433 C.ar    1  LIG1       -0.0612
     33 H          -1.5945    6.0898    6.5075 H       1  LIG1        0.0618
     34 C          -2.3854    5.1143    8.1129 C.ar    1  LIG1       -0.0617
     35 H          -3.1955    5.6092    8.1484 H       1  LIG1        0.0618
     36 C          -2.1492    4.1089    9.0173 C.ar    1  LIG1       -0.0612
     37 H          -2.8053    3.8973    9.6709 H       1  LIG1        0.0618
@<TRIPOS>BOND
     1    29    28    1
     2    31    30    1
     3    28    30   ar
     4    28     7   ar
     5     4     1    2
     6     3     7   ar
     7     3     6   ar
     8    30    24   ar
     9    11     9    1
    10    13    12    1
    11     7     8   ar
    12    23    22    1
    13    27    26    1
    14    33    32    1
    15     1     9    1
    16     1     6    1
    17     1     5    2
    18     9    12    1
    19     9    10    1
    20     6     2   ar
    21    12    22    1
    22    12    14    1
    23    22    19    2
    24    26    32   ar
    25    26    21   ar
    26    32    34   ar
    27    24    25    1
    28    24    17   ar
    29     8    17   ar
    30     8     2   ar
    31    19    21    1
    32    19    20    1
    33    21    15   ar
    34    34    35    1
    35    34    36   ar
    36    17    18    1
    37    15    36   ar
    38    15    16    1
    39    36    37    1
