@<TRIPOS>MOLECULE
C28 H27 O2 P
 58 61 0 0 0
SMALL
GASTEIGER

@<TRIPOS>ATOM
      1 P           5.8003    4.6253    4.2622 P.3     1  LIG1        0.1721
      2 O           4.2933    0.6227    4.0227 O.3     1  LIG1       -0.5062
      3 H           4.5250   -0.1046    3.7237 H       1  LIG1        0.2922
      4 O           5.3002    5.6646    3.3092 O.2     1  LIG1       -0.3065
      5 C           7.6903    1.1130    3.4404 C.ar    1  LIG1       -0.0581
      6 H           7.9004    0.3249    3.8878 H       1  LIG1        0.0620
      7 C           4.1161    1.0760    1.6627 C.ar    1  LIG1       -0.0196
      8 H           4.4462    0.2336    1.4464 H       1  LIG1        0.0654
      9 C           3.4853    3.1111    4.7731 C.ar    1  LIG1       -0.0002
     10 C           7.0446    5.3370    5.3726 C.ar    1  LIG1        0.0200
     11 C           3.5041    2.7266    3.3218 C.ar    1  LIG1        0.0274
     12 C           6.9570    2.0861    4.0868 C.ar    1  LIG1       -0.0505
     13 H           6.6769    1.9508    4.9632 H       1  LIG1        0.0625
     14 C           4.4844    4.1989    6.7006 C.ar    1  LIG1       -0.0501
     15 H           5.1515    4.7304    7.0708 H       1  LIG1        0.0625
     16 C           6.7313    6.4855    6.1113 C.ar    1  LIG1       -0.0505
     17 H           5.8834    6.8614    6.0392 H       1  LIG1        0.0625
     18 C           6.6367    3.2723    3.4289 C.ar    1  LIG1        0.0200
     19 C           4.5062    3.9135    5.3266 C.ar    1  LIG1        0.0280
     20 C           7.6720    7.0689    6.9500 C.ar    1  LIG1       -0.0581
     21 H           7.4393    7.8190    7.4483 H       1  LIG1        0.0620
     22 C           7.0481    3.4535    2.1088 C.ar    1  LIG1       -0.0505
     23 H           6.8339    4.2382    1.6576 H       1  LIG1        0.0625
     24 C           3.0533    3.5903    2.3120 C.ar    1  LIG1       -0.0392
     25 C           3.9718    1.4553    2.9934 C.ar    1  LIG1        0.1248
     26 C           8.1207    1.2919    2.1267 C.ar    1  LIG1       -0.0504
     27 C           2.3629    4.8970    2.6302 C.3     1  LIG1       -0.0390
     28 H           1.4126    4.7596    2.6510 H       1  LIG1        0.0278
     29 H           2.5774    5.5452    1.9555 H       1  LIG1        0.0278
     30 H           2.6587    5.2154    3.4859 H       1  LIG1        0.0278
     31 C           3.7617    1.9678    0.6647 C.ar    1  LIG1       -0.0580
     32 H           3.8953    1.7383   -0.2268 H       1  LIG1        0.0619
     33 C           3.4818    3.6990    7.5087 C.ar    1  LIG1       -0.0608
     34 H           3.4762    3.8923    8.4184 H       1  LIG1        0.0618
     35 C           8.9608    6.5476    7.0558 C.ar    1  LIG1       -0.0504
     36 C           9.2877    5.4479    6.2656 C.ar    1  LIG1       -0.0581
     37 H          10.1569    5.1170    6.2854 H       1  LIG1        0.0620
     38 C           2.4673    2.6053    5.5992 C.ar    1  LIG1       -0.0419
     39 C           2.4855    2.9107    6.9615 C.ar    1  LIG1       -0.0582
     40 H           1.8142    2.5774    7.5122 H       1  LIG1        0.0620
     41 C           8.3479    4.8364    5.4496 C.ar    1  LIG1       -0.0505
     42 H           8.5854    4.0886    4.9505 H       1  LIG1        0.0625
     43 C           1.3749    1.7489    5.0236 C.3     1  LIG1       -0.0391
     44 H           1.0660    2.1344    4.2003 H       1  LIG1        0.0278
     45 H           0.6456    1.6986    5.6463 H       1  LIG1        0.0278
     46 H           1.7142    0.8667    4.8564 H       1  LIG1        0.0278
     47 C           7.7749    2.4670    1.4731 C.ar    1  LIG1       -0.0581
     48 H           8.0372    2.5920    0.5897 H       1  LIG1        0.0620
     49 C           3.2125    3.1976    0.9810 C.ar    1  LIG1       -0.0580
     50 H           2.9446    3.7699    0.2986 H       1  LIG1        0.0620
     51 C           8.9726    0.2418    1.4471 C.3     1  LIG1       -0.0397
     52 H           9.8938    0.3771    1.6799 H       1  LIG1        0.0278
     53 H           8.8689    0.3126    0.4954 H       1  LIG1        0.0278
     54 H           8.6945   -0.6310    1.7351 H       1  LIG1        0.0278
     55 C           9.9800    7.1303    7.9998 C.3     1  LIG1       -0.0397
     56 H           9.7198    8.0219    8.2414 H       1  LIG1        0.0278
     57 H          10.8384    7.1528    7.5699 H       1  LIG1        0.0278
     58 H          10.0325    6.5868    8.7897 H       1  LIG1        0.0278
@<TRIPOS>BOND
     1    32    31    1
     2    50    49    1
     3    53    51    1
     4    48    47    1
     5    31    49   ar
     6    31     7   ar
     7    49    24   ar
     8     8     7    1
     9    51    52    1
    10    51    54    1
    11    51    26    1
    12    47    22   ar
    13    47    26   ar
    14    23    22    1
    15     7    25   ar
    16    29    27    1
    17    22    18   ar
    18    26     5   ar
    19    24    27    1
    20    24    11   ar
    21    27    28    1
    22    27    30    1
    23    25    11   ar
    24    25     2    1
    25     4     1    2
    26    11     9    1
    27    18    12   ar
    28    18     1    1
    29     5     6    1
    30     5    12   ar
    31     3     2    1
    32    12    13    1
    33    44    43    1
    34     1    19    1
    35     1    10    1
    36     9    19   ar
    37     9    38   ar
    38    46    43    1
    39    42    41    1
    40    43    38    1
    41    43    45    1
    42    19    14   ar
    43    10    41   ar
    44    10    16   ar
    45    41    36   ar
    46    38    39   ar
    47    17    16    1
    48    16    20   ar
    49    36    37    1
    50    36    35   ar
    51    14    15    1
    52    14    33   ar
    53    20    35   ar
    54    20    21    1
    55    39    33   ar
    56    39    40    1
    57    35    55    1
    58    33    34    1
    59    57    55    1
    60    55    56    1
    61    55    58    1
