@<TRIPOS>MOLECULE
4514670.cif
 44 46 0 0 0
SMALL
GASTEIGER

@<TRIPOS>ATOM
      1 O           6.8266    6.3702    1.7820 O.2     1  LIG1       -0.2921
      2 O           1.3606    7.5623    3.0308 O.2     1  LIG1       -0.2866
      3 C           0.9255    5.9966    7.7684 C.ar    1  LIG1       -0.0617
      4 H           0.7204    5.8653    8.6864 H       1  LIG1        0.0618
      5 C           0.2320    6.9470    7.0316 C.ar    1  LIG1       -0.0611
      6 H          -0.4505    7.4620    7.4457 H       1  LIG1        0.0618
      7 C           0.5334    7.1470    5.6956 C.ar    1  LIG1       -0.0509
      8 H           0.0590    7.8011    5.1960 H       1  LIG1        0.0625
      9 C           1.5326    6.3895    5.0815 C.ar    1  LIG1        0.0223
     10 C           1.8502    6.6286    3.6448 C.2     1  LIG1        0.1940
     11 C           2.7812    5.6532    2.9588 C.ar    1  LIG1        0.0338
     12 C           4.1307    5.9318    2.8656 C.ar    1  LIG1       -0.0257
     13 C           4.9823    4.9615    2.2381 C.ar    1  LIG1        0.0218
     14 C           6.4381    5.2402    1.9867 C.2     1  LIG1        0.1632
     15 C           7.4030    4.0759    1.9716 C.3     1  LIG1        0.0076
     16 H           7.1397    3.4511    1.2504 H       1  LIG1        0.0342
     17 H           7.3332    3.5904    2.8312 H       1  LIG1        0.0342
     18 C           8.8493    4.4931    1.7590 C.3     1  LIG1       -0.0582
     19 H           8.9382    4.9309    0.8860 H       1  LIG1        0.0234
     20 H           9.4247    3.7008    1.7865 H       1  LIG1        0.0234
     21 H           9.1175    5.1162    2.4668 H       1  LIG1        0.0234
     22 C           1.9181    5.2389    7.1619 C.ar    1  LIG1       -0.0611
     23 H           2.3930    4.5892    7.6660 H       1  LIG1        0.0618
     24 C           2.2184    5.4291    5.8208 C.ar    1  LIG1       -0.0509
     25 H           2.8929    4.9033    5.4065 H       1  LIG1        0.0625
     26 C           2.2106    4.4524    2.4441 C.ar    1  LIG1       -0.0068
     27 C           3.0764    3.4837    1.8725 C.ar    1  LIG1       -0.0165
     28 C           4.4575    3.7699    1.7964 C.ar    1  LIG1       -0.0432
     29 H           5.0427    3.1186    1.4286 H       1  LIG1        0.0631
     30 C           2.5420    2.2624    1.3860 C.ar    1  LIG1       -0.0540
     31 H           3.1213    1.6112    1.0074 H       1  LIG1        0.0624
     32 C           1.1979    2.0176    1.4584 C.ar    1  LIG1       -0.0612
     33 H           0.8469    1.1959    1.1354 H       1  LIG1        0.0618
     34 C           0.3339    2.9822    2.0107 C.ar    1  LIG1       -0.0611
     35 H          -0.5983    2.8058    2.0505 H       1  LIG1        0.0618
     36 C           0.8170    4.1711    2.4912 C.ar    1  LIG1       -0.0533
     37 H           0.2182    4.8113    2.8571 H       1  LIG1        0.0624
     38 C           4.6637    7.2089    3.4828 C.3     1  LIG1       -0.0292
     39 H           5.6084    7.0678    3.7415 H       1  LIG1        0.0311
     40 H           4.1516    7.4003    4.3084 H       1  LIG1        0.0311
     41 C           4.5831    8.4238    2.5622 C.3     1  LIG1       -0.0612
     42 H           5.0867    8.2453    1.7412 H       1  LIG1        0.0233
     43 H           4.9644    9.2033    3.0159 H       1  LIG1        0.0233
     44 H           3.6458    8.6028    2.3388 H       1  LIG1        0.0233
@<TRIPOS>BOND
     1    19    18    1
     2    31    30    1
     3    33    32    1
     4    16    15    1
     5    30    32   ar
     6    30    27   ar
     7    29    28    1
     8    32    34   ar
     9    42    41    1
    10    18    20    1
    11    18    15    1
    12    18    21    1
    13     1    14    2
    14    28    27   ar
    15    28    13   ar
    16    27    26   ar
    17    15    14    1
    18    15    17    1
    19    14    13    1
    20    34    35    1
    21    34    36   ar
    22    13    12   ar
    23    44    41    1
    24    26    36   ar
    25    26    11   ar
    26    36    37    1
    27    41    43    1
    28    41    38    1
    29    12    11   ar
    30    12    38    1
    31    11    10    1
    32     2    10    2
    33    38    39    1
    34    38    40    1
    35    10     9    1
    36     9     7   ar
    37     9    24   ar
    38     8     7    1
    39    25    24    1
    40     7     5   ar
    41    24    22   ar
    42     5     6    1
    43     5     3   ar
    44    22    23    1
    45    22     3   ar
    46     3     4    1
