@<TRIPOS>MOLECULE
C16 H13 N O2 S
 33 35 0 0 0
SMALL
GASTEIGER

@<TRIPOS>ATOM
      1 S           2.8177    4.1333   13.0790 S.O2    1  LIG1        0.0426
      2 O           2.7178    3.8296   14.4832 O.2     1  LIG1       -0.1628
      3 O           2.1020    5.2748   12.5665 O.2     1  LIG1       -0.1628
      4 N           5.1227    3.4048   12.0592 N.ar    1  LIG1       -0.2360
      5 C           4.5654    4.3837   12.7263 C.ar    1  LIG1        0.1895
      6 C           5.2095    5.5638   13.1878 C.ar    1  LIG1        0.0261
      7 C           2.3294    2.7196   12.1495 C.ar    1  LIG1        0.0953
      8 C           2.4109    1.4606   12.7263 C.ar    1  LIG1       -0.0362
      9 H           2.7741    1.3536   13.5977 H       1  LIG1        0.0637
     10 C           1.8063    2.8939   10.8746 C.ar    1  LIG1       -0.0362
     11 H           1.7664    3.7576   10.4812 H       1  LIG1        0.0637
     12 C           6.5962    5.6647   12.8732 C.ar    1  LIG1       -0.0131
     13 C           4.5826    6.6128   13.9087 C.ar    1  LIG1       -0.0507
     14 H           3.6641    6.5484   14.1420 H       1  LIG1        0.0625
     15 C           1.4076    0.5042   10.7465 C.ar    1  LIG1       -0.0503
     16 C           1.9569    0.3629   12.0183 C.ar    1  LIG1       -0.0570
     17 H           2.0213   -0.5023   12.4058 H       1  LIG1        0.0621
     18 C           1.3437    1.7838   10.1887 C.ar    1  LIG1       -0.0570
     19 H           0.9757    1.8941    9.3201 H       1  LIG1        0.0621
     20 C           7.1973    4.6050   12.1558 C.ar    1  LIG1       -0.0357
     21 H           8.1200    4.6459   11.9345 H       1  LIG1        0.0639
     22 C           7.3147    6.8170   13.2807 C.ar    1  LIG1       -0.0539
     23 H           8.2428    6.8879   13.0907 H       1  LIG1        0.0624
     24 C           5.3068    7.7188   14.2676 C.ar    1  LIG1       -0.0611
     25 H           4.8812    8.4246   14.7402 H       1  LIG1        0.0618
     26 C           6.6786    7.8254   13.9446 C.ar    1  LIG1       -0.0612
     27 H           7.1617    8.6053   14.1914 H       1  LIG1        0.0618
     28 C           6.4581    3.5296   11.7824 C.ar    1  LIG1        0.0303
     29 H           6.8880    2.8296   11.3057 H       1  LIG1        0.0830
     30 C           0.8732   -0.6894    9.9951 C.3     1  LIG1       -0.0397
     31 H           1.4242   -1.4748   10.1959 H       1  LIG1        0.0278
     32 H           0.9008   -0.5086    9.0323 H       1  LIG1        0.0278
     33 H          -0.0518   -0.8607   10.2691 H       1  LIG1        0.0278
@<TRIPOS>BOND
     1    32    30    1
     2    19    18    1
     3    30    31    1
     4    30    33    1
     5    30    15    1
     6    18    15   ar
     7    18    10   ar
     8    11    10    1
     9    15    16   ar
    10    10     7   ar
    11    29    28    1
    12    28     4   ar
    13    28    20   ar
    14    21    20    1
    15    16    17    1
    16    16     8   ar
    17     4     5   ar
    18     7     8   ar
    19     7     1    1
    20    20    12   ar
    21     3     1    2
    22     5     1    1
    23     5     6   ar
    24     8     9    1
    25    12     6   ar
    26    12    22   ar
    27     1     2    2
    28    23    22    1
    29     6    13   ar
    30    22    26   ar
    31    13    14    1
    32    13    24   ar
    33    26    27    1
    34    26    24   ar
    35    24    25    1
