@<TRIPOS>MOLECULE
C40 H42 O2
 84 91 0 0 0
SMALL
GASTEIGER

@<TRIPOS>ATOM
      1 C           1.9609    6.2898   11.5539 C.ar    1  LIG1       -0.0068
      2 C           2.9122    5.4683   12.0948 C.ar    1  LIG1       -0.0552
      3 H           3.7688    5.4249   11.6855 H       1  LIG1        0.0621
      4 C           2.6605    4.6878   13.2352 C.ar    1  LIG1       -0.0608
      5 H           3.3452    4.1347   13.5911 H       1  LIG1        0.0618
      6 C           1.4324    4.7222   13.8311 C.ar    1  LIG1       -0.0540
      7 H           1.2620    4.1856   14.5958 H       1  LIG1        0.0624
      8 C          -0.8842    5.5808   13.9123 C.ar    1  LIG1       -0.0540
      9 H          -1.0641    5.0221   14.6599 H       1  LIG1        0.0624
     10 C          -1.8591    6.3911   13.4307 C.ar    1  LIG1       -0.0612
     11 H          -2.7126    6.4019   13.8478 H       1  LIG1        0.0618
     12 C          -1.6162    7.2137   12.3214 C.ar    1  LIG1       -0.0612
     13 H          -2.3048    7.7785   11.9916 H       1  LIG1        0.0618
     14 C          -0.3849    7.2044   11.7062 C.ar    1  LIG1       -0.0537
     15 H          -0.2351    7.7662   10.9548 H       1  LIG1        0.0624
     16 C           0.6673    6.3698   12.1760 C.ar    1  LIG1       -0.0119
     17 C           0.4094    5.5584   13.3085 C.ar    1  LIG1       -0.0175
     18 C           3.1188    6.3097    9.3094 C.ar    1  LIG1       -0.0068
     19 C           4.4471    6.6014    9.0895 C.ar    1  LIG1       -0.0552
     20 H           4.8478    7.3294    9.5503 H       1  LIG1        0.0621
     21 C           5.2241    5.8395    8.1912 C.ar    1  LIG1       -0.0608
     22 H           6.1391    6.0577    8.0569 H       1  LIG1        0.0618
     23 C           4.6743    4.7944    7.5141 C.ar    1  LIG1       -0.0540
     24 H           5.2083    4.2890    6.9116 H       1  LIG1        0.0624
     25 C           2.7221    3.3625    7.0241 C.ar    1  LIG1       -0.0540
     26 H           3.2505    2.8413    6.4327 H       1  LIG1        0.0624
     27 C           1.4009    3.0437    7.2078 C.ar    1  LIG1       -0.0612
     28 H           1.0191    2.3120    6.7363 H       1  LIG1        0.0618
     29 C           0.6152    3.7956    8.0905 C.ar    1  LIG1       -0.0612
     30 H          -0.2982    3.5667    8.2174 H       1  LIG1        0.0618
     31 C           1.1500    4.8568    8.7710 C.ar    1  LIG1       -0.0537
     32 H           0.6018    5.3555    9.3652 H       1  LIG1        0.0624
     33 C           2.5146    5.2250    8.6000 C.ar    1  LIG1       -0.0119
     34 C           3.3081    4.4540    7.7012 C.ar    1  LIG1       -0.0175
     35 C           2.3111    7.1121   10.3202 C.3     1  LIG1        0.1101
     36 H           1.4600    7.4050    9.8836 H       1  LIG1        0.0697
     37 C           2.7860    9.4054    9.9063 C.3     1  LIG1        0.0655
     38 H           2.7576    9.0935    8.9554 H       1  LIG1        0.0602
     39 C           3.8595   10.4973   10.0393 C.3     1  LIG1       -0.0027
     40 C           3.1188   11.6463    9.3336 C.3     1  LIG1       -0.0301
     41 H           2.9918   11.3560    8.3852 H       1  LIG1        0.0310
     42 C           1.7258   11.6297    9.9778 C.3     1  LIG1       -0.0470
     43 H           1.0475   12.0104    9.3652 H       1  LIG1        0.0269
     44 H           1.7203   12.1432   10.8240 H       1  LIG1        0.0269
     45 C           1.4584   10.1283   10.2375 C.3     1  LIG1       -0.0258
     46 H           0.7280    9.7988    9.6565 H       1  LIG1        0.0290
     47 H           1.2060    9.9778   11.1819 H       1  LIG1        0.0290
     48 C           3.8737   12.9670    9.2768 C.3     1  LIG1       -0.0337
     49 H           4.0622   13.2837   10.2069 H       1  LIG1        0.0307
     50 C           5.2051   12.7258    8.5358 C.3     1  LIG1       -0.0288
     51 H           4.9504   12.4302    7.6151 H       1  LIG1        0.0312
     52 C           5.9979   11.5493    9.1465 C.3     1  LIG1       -0.0486
     53 H           6.7851   11.3638    8.5753 H       1  LIG1        0.0268
     54 H           6.3291   11.8160   10.0415 H       1  LIG1        0.0268
     55 C           5.1673   10.2567    9.2869 C.3     1  LIG1       -0.0447
     56 H           4.9646    9.9007    8.3852 H       1  LIG1        0.0271
     57 H           5.7013    9.5765    9.7700 H       1  LIG1        0.0271
     58 C           3.0526   14.0190    8.5360 C.3     1  LIG1       -0.0459
     59 H           2.2425   14.2298    9.0640 H       1  LIG1        0.0271
     60 H           2.7607   13.6495    7.6644 H       1  LIG1        0.0271
     61 C           3.8469   15.3033    8.2976 C.3     1  LIG1       -0.0305
     62 H           3.3192   15.9043    7.7138 H       1  LIG1        0.0310
     63 H           3.9825   15.7639    9.1628 H       1  LIG1        0.0310
     64 C           5.1799   15.0561    7.6637 C.2     1  LIG1       -0.0601
     65 C           6.0633   14.0179    8.3405 C.3     1  LIG1       -0.0072
     66 C           7.2481   13.6859    7.4220 C.3     1  LIG1       -0.0367
     67 H           7.9241   13.1818    7.9409 H       1  LIG1        0.0278
     68 H           6.9310   13.1000    6.6894 H       1  LIG1        0.0278
     69 C           7.9091   14.9227    6.8165 C.3     1  LIG1        0.0107
     70 H           8.2806   15.4861    7.5410 H       1  LIG1        0.0345
     71 H           8.6568   14.6449    6.2303 H       1  LIG1        0.0345
     72 C           6.9247   15.7129    6.0262 C.2     1  LIG1        0.1561
     73 C           5.5680   15.7500    6.5853 C.2     1  LIG1       -0.0194
     74 H           4.9243   16.2994    6.1538 H       1  LIG1        0.0652
     75 C           4.1363   10.7782   11.5236 C.3     1  LIG1       -0.0569
     76 H           4.5678    9.9979   11.9299 H       1  LIG1        0.0236
     77 H           3.2916   10.9609   11.9842 H       1  LIG1        0.0236
     78 H           4.7271   11.5567   11.6040 H       1  LIG1        0.0236
     79 C           6.5721   14.5810    9.6885 C.3     1  LIG1       -0.0556
     80 H           7.1511   13.9196   10.1205 H       1  LIG1        0.0238
     81 H           5.8078   14.7761   10.2711 H       1  LIG1        0.0238
     82 H           7.0793   15.4043    9.5281 H       1  LIG1        0.0238
     83 O           3.0257    8.2812   10.7571 O.3     1  LIG1       -0.3635
     84 O           7.2394   16.3334    5.0351 O.2     1  LIG1       -0.2927
@<TRIPOS>BOND
     1    84    72    2
     2    72    73    1
     3    72    69    1
     4    74    73    1
     5    71    69    1
     6    26    25    1
     7    73    64    2
     8    68    66    1
     9    28    27    1
    10    69    66    1
    11    69    70    1
    12    24    23    1
    13    25    27   ar
    14    25    34   ar
    15    27    29   ar
    16    66    67    1
    17    66    65    1
    18    23    34   ar
    19    23    21   ar
    20    51    50    1
    21    64    61    1
    22    64    65    1
    23    60    58    1
    24    34    33   ar
    25    62    61    1
    26    22    21    1
    27    29    30    1
    28    29    31   ar
    29    21    19   ar
    30    61    58    1
    31    61    63    1
    32    65    50    1
    33    65    79    1
    34    41    40    1
    35    56    55    1
    36    50    52    1
    37    50    48    1
    38    58    59    1
    39    58    48    1
    40    53    52    1
    41    33    31   ar
    42    33    18   ar
    43    31    32    1
    44    38    37    1
    45    19    18   ar
    46    19    20    1
    47    52    55    1
    48    52    54    1
    49    48    40    1
    50    48    49    1
    51    55    57    1
    52    55    39    1
    53    18    35    1
    54    40    42    1
    55    40    39    1
    56    43    42    1
    57    82    79    1
    58    46    45    1
    59    79    80    1
    60    79    81    1
    61    36    35    1
    62    37    39    1
    63    37    45    1
    64    37    83    1
    65    42    45    1
    66    42    44    1
    67    39    75    1
    68    45    47    1
    69    35    83    1
    70    35     1    1
    71    15    14    1
    72    75    78    1
    73    75    76    1
    74    75    77    1
    75     1     2   ar
    76     1    16   ar
    77     3     2    1
    78    14    16   ar
    79    14    12   ar
    80    13    12    1
    81     2     4   ar
    82    16    17   ar
    83    12    10   ar
    84     4     5    1
    85     4     6   ar
    86    17     6   ar
    87    17     8   ar
    88    10    11    1
    89    10     8   ar
    90     6     7    1
    91     8     9    1
