@<TRIPOS>MOLECULE
C28 H32 B N S2
 64 67 0 0 0
SMALL
GASTEIGER

@<TRIPOS>ATOM
      1 S           7.7732    1.4478    4.8733 S.2     1  LIG1        0.0000
      2 S           9.9147    4.1093    4.2701 S.2     1  LIG1        0.0000
      3 C           6.0658    3.9868    6.8102 C.3     1  LIG1        0.0000
      4 H           5.8389    3.4212    6.0686 H       1  LIG1        0.0000
      5 H           6.7774    4.5781    6.5554 H       1  LIG1        0.0000
      6 H           5.2976    4.5028    7.0656 H       1  LIG1        0.0000
      7 C          10.2936    8.6778   12.0636 C.3     1  LIG1        0.0000
      8 H           9.9534    8.4084   12.9198 H       1  LIG1        0.0000
      9 H           9.9208    9.5286   11.8241 H       1  LIG1        0.0000
     10 H          11.2510    8.7471   12.1058 H       1  LIG1        0.0000
     11 C          11.6158    4.9376    9.0160 C.3     1  LIG1        0.0000
     12 H          11.8056    5.1813    8.1081 H       1  LIG1        0.0000
     13 H          11.3373    4.0194    9.0488 H       1  LIG1        0.0000
     14 H          12.4060    5.0506    9.5497 H       1  LIG1        0.0000
     15 C          10.5155    5.8182    9.5532 C.ar    1  LIG1        0.0000
     16 C          10.8569    6.8127   10.4660 C.ar    1  LIG1        0.0000
     17 H          11.7482    6.9177   10.7080 H       1  LIG1        0.0000
     18 C           9.9088    7.6457   11.0194 C.ar    1  LIG1        0.0000
     19 C           8.6010    7.4812   10.6374 C.ar    1  LIG1        0.0000
     20 H           7.9538    8.0518   10.9866 H       1  LIG1        0.0000
     21 C           9.1707    5.6211    9.1897 C.ar    1  LIG1        0.0000
     22 C           5.6349    2.1504    8.4130 C.ar    1  LIG1        0.0000
     23 H           4.8297    2.0345    7.9625 H       1  LIG1        0.0000
     24 C           7.9926    2.5515    9.7892 C.ar    1  LIG1        0.0000
     25 C           6.5113    3.1349    7.9752 C.ar    1  LIG1        0.0000
     26 C           8.2148    6.4937    9.7480 C.ar    1  LIG1        0.0000
     27 C           7.1042    1.5561   10.1577 C.ar    1  LIG1        0.0000
     28 H           7.3169    1.0133   10.8818 H       1  LIG1        0.0000
     29 C           5.9161    1.3382    9.4899 C.ar    1  LIG1        0.0000
     30 C           9.0015    2.1167    5.8954 C.ar    1  LIG1        0.0000
     31 C           9.2940    4.5375    6.7372 C.ar    1  LIG1        0.0000
     32 C           7.7247    3.3520    8.6550 C.ar    1  LIG1        0.0000
     33 C           9.4916    1.1579    6.7241 C.ar    1  LIG1        0.0000
     34 C           6.7532    6.3937    9.3901 C.3     1  LIG1        0.0000
     35 H           6.2549    7.0405    9.8941 H       1  LIG1        0.0000
     36 H           6.4343    5.5121    9.5936 H       1  LIG1        0.0000
     37 H           6.6412    6.5650    8.4509 H       1  LIG1        0.0000
     38 C           9.3380    3.5301    5.7921 C.ar    1  LIG1        0.0000
     39 C           8.8437   -0.0911    6.5663 C.ar    1  LIG1        0.0000
     40 H           9.0531   -0.8399    7.0750 H       1  LIG1        0.0000
     41 C           9.7509    5.7677    6.1733 C.ar    1  LIG1        0.0000
     42 H           9.8102    6.5591    6.6571 H       1  LIG1        0.0000
     43 C           7.9121   -0.0921    5.6287 C.ar    1  LIG1        0.0000
     44 H           7.3973   -0.8330    5.4049 H       1  LIG1        0.0000
     45 C          10.0927    5.6716    4.8633 C.ar    1  LIG1        0.0000
     46 H          10.3906    6.3897    4.3515 H       1  LIG1        0.0000
     47 B           8.7393    4.4622    8.1991 B       1  LIG1        0.0000
     48 C           9.2423    2.7229   10.6188 C.3     1  LIG1        0.0000
     49 H           9.2386    2.0860   11.3373 H       1  LIG1        0.0000
     50 H           9.2670    3.6124   10.9804 H       1  LIG1        0.0000
     51 H          10.0152    2.5803   10.0663 H       1  LIG1        0.0000
     52 C           4.9566    0.2585    9.9442 C.3     1  LIG1        0.0000
     53 H           4.9156    0.2506   10.9021 H       1  LIG1        0.0000
     54 H           5.2645   -0.5943    9.6280 H       1  LIG1        0.0000
     55 H           4.0840    0.4358    9.5873 H       1  LIG1        0.0000
     56 N          10.5442    1.3699    7.6202 N.pl3   1  LIG1        0.0000
     57 C          11.7845    1.7869    6.9936 C.3     1  LIG1        0.0000
     58 H          12.1405    1.0618    6.4740 H       1  LIG1        0.0000
     59 H          12.4179    2.0355    7.6714 H       1  LIG1        0.0000
     60 H          11.6162    2.5387    6.4207 H       1  LIG1        0.0000
     61 C          10.7748    0.3021    8.5933 C.3     1  LIG1        0.0000
     62 H           9.9431    0.0644    9.0113 H       1  LIG1        0.0000
     63 H          11.3921    0.6062    9.2633 H       1  LIG1        0.0000
     64 H          11.1391   -0.4655    8.1472 H       1  LIG1        0.0000
@<TRIPOS>BOND
     1     2    45   ar
     2     2    38   ar
     3    46    45    1
     4    45    41   ar
     5     1    43   ar
     6     1    30   ar
     7    44    43    1
     8    43    39   ar
     9    38    30    1
    10    38    31   ar
    11    30    33   ar
    12     4     3    1
    13    41    42    1
    14    41    31   ar
    15    60    57    1
    16    58    57    1
    17     5     3    1
    18    39    33   ar
    19    39    40    1
    20    33    56    1
    21    31    47    1
    22     3     6    1
    23     3    25    1
    24    57    56    1
    25    57    59    1
    26    56    61    1
    27    23    22    1
    28    25    22   ar
    29    25    32   ar
    30    12    11    1
    31    64    61    1
    32    47    32    1
    33    47    21    1
    34    22    29   ar
    35    37    34    1
    36    61    62    1
    37    61    63    1
    38    32    24   ar
    39    11    13    1
    40    11    14    1
    41    11    15    1
    42    21    15   ar
    43    21    26   ar
    44    34    36    1
    45    34    26    1
    46    34    35    1
    47    29    52    1
    48    29    27   ar
    49    15    16   ar
    50    55    52    1
    51    54    52    1
    52    26    19   ar
    53    24    27   ar
    54    24    48    1
    55    52    53    1
    56    51    48    1
    57    27    28    1
    58    16    17    1
    59    16    18   ar
    60    48    50    1
    61    48    49    1
    62    19    20    1
    63    19    18   ar
    64    18     7    1
    65     9     7    1
    66     7    10    1
    67     7     8    1
