@<TRIPOS>MOLECULE
C44 H52 Br4 O4 S4
 54 55 0 0 0
SMALL
GASTEIGER

@<TRIPOS>ATOM
      1 BR          4.2266   16.2174    4.9478 Br      1  LIG1       -0.0502
      2 BR          6.9548    6.9456    0.1804 Br      1  LIG1       -0.0502
      3 S           6.2582   11.6679    7.2916 S.3     1  LIG1       -0.0482
      4 S           4.5238   11.5430    2.0243 S.3     1  LIG1       -0.0820
      5 O           6.1166   10.5162    4.4636 O.3     1  LIG1       -0.4897
      6 O           7.4004   12.6941    1.8900 O.3     1  LIG1       -0.4902
      7 C           5.2760   13.7688    5.9129 C.ar    1  LIG1       -0.0299
      8 C           4.6951   14.3790    4.8254 C.ar    1  LIG1        0.0202
      9 C           4.5058   13.7108    3.6364 C.ar    1  LIG1       -0.0304
     10 C           4.9337   12.3902    3.5268 C.ar    1  LIG1        0.0566
     11 C           5.5606   11.7569    4.6026 C.ar    1  LIG1        0.1484
     12 C           5.7016   12.4433    5.8080 C.ar    1  LIG1        0.0627
     13 C           8.2135    9.4783    0.3539 C.ar    1  LIG1       -0.0364
     14 C           7.0325    8.8041    0.5634 C.ar    1  LIG1        0.0197
     15 C           5.9279    9.4202    1.1238 C.ar    1  LIG1       -0.0304
     16 C           6.0244   10.7570    1.5106 C.ar    1  LIG1        0.0561
     17 C           7.2296   11.4466    1.3633 C.ar    1  LIG1        0.1420
     18 C           8.3108   10.8066    0.7525 C.ar    1  LIG1        0.0295
     19 C           5.2203    9.3870    4.5971 C.3     1  LIG1        0.0897
     20 C           6.0443    8.1342    4.4388 C.3     1  LIG1       -0.0186
     21 C           5.1768    6.8844    4.3520 C.3     1  LIG1       -0.0502
     22 C           5.9895    5.6027    4.3642 C.3     1  LIG1       -0.0558
     23 C           5.1178    4.3558    4.3109 C.3     1  LIG1       -0.0653
     24 C           6.9500   13.8034    1.0735 C.3     1  LIG1        0.0897
     25 C           7.3515   15.0694    1.7877 C.3     1  LIG1       -0.0186
     26 C           6.7646   16.3028    1.1238 C.3     1  LIG1       -0.0502
     27 C           7.2887   17.6027    1.7085 C.3     1  LIG1       -0.0558
     28 C           6.6983   18.8264    1.0446 C.3     1  LIG1       -0.0653
     29 H           5.3673   14.1978    6.6924 H       1  LIG1        0.0641
     30 H           4.1125   14.1683    2.9054 H       1  LIG1        0.0641
     31 H           8.9552    9.0589   -0.0198 H       1  LIG1        0.0636
     32 H           5.1280    8.9364    1.2608 H       1  LIG1        0.0641
     33 H           4.5414    9.4140    3.9165 H       1  LIG1        0.0696
     34 H           4.8237    9.4373    5.4803 H       1  LIG1        0.0696
     35 H           6.6658    8.0308    5.1849 H       1  LIG1        0.0298
     36 H           6.5935    8.2386    3.6591 H       1  LIG1        0.0298
     37 H           4.5504    6.8074    5.0859 H       1  LIG1        0.0266
     38 H           4.6689    6.8787    3.5069 H       1  LIG1        0.0266
     39 H           6.5281    5.5544    5.2047 H       1  LIG1        0.0263
     40 H           6.5772    5.6149    3.6287 H       1  LIG1        0.0263
     41 H           4.6199    4.3341    3.5480 H       1  LIG1        0.0230
     42 H           5.6254    3.6192    4.2972 H       1  LIG1        0.0230
     43 H           4.4788    4.2875    5.0661 H       1  LIG1        0.0230
     44 H           5.9828   13.7744    1.0476 H       1  LIG1        0.0696
     45 H           7.3893   13.7543    0.1995 H       1  LIG1        0.0696
     46 H           8.3139   15.1250    1.8410 H       1  LIG1        0.0298
     47 H           7.1058   14.9994    2.6952 H       1  LIG1        0.0298
     48 H           6.9618   16.2353    0.2086 H       1  LIG1        0.0266
     49 H           5.7656   16.2896    1.2502 H       1  LIG1        0.0266
     50 H           7.1109   17.5983    2.6267 H       1  LIG1        0.0263
     51 H           8.2707   17.5999    1.5821 H       1  LIG1        0.0263
     52 H           7.0486   19.6126    1.4131 H       1  LIG1        0.0230
     53 H           6.8987   18.7908    0.0548 H       1  LIG1        0.0230
     54 H           5.7119   18.8202    1.1055 H       1  LIG1        0.0230
@<TRIPOS>BOND
     1    31    13    1
     2    53    28    1
     3     2    14    1
     4    45    24    1
     5    48    26    1
     6    13    14   ar
     7    13    18   ar
     8    14    15   ar
     9    18    17   ar
    10    28    54    1
    11    28    52    1
    12    28    27    1
    13    44    24    1
    14    24    25    1
    15    24     6    1
    16    15    32    1
    17    15    16   ar
    18    26    49    1
    19    26    27    1
    20    26    25    1
    21    17    16   ar
    22    17     6    1
    23    16     4    1
    24    51    27    1
    25    27    50    1
    26    25    46    1
    27    25    47    1
    28     4    10    1
    29    30     9    1
    30    38    21    1
    31    10     9   ar
    32    10    11   ar
    33    41    23    1
    34    40    22    1
    35     9     8   ar
    36    36    20    1
    37    33    19    1
    38    42    23    1
    39    23    22    1
    40    23    43    1
    41    21    22    1
    42    21    20    1
    43    21    37    1
    44    22    39    1
    45    20    19    1
    46    20    35    1
    47     5    19    1
    48     5    11    1
    49    19    34    1
    50    11    12   ar
    51     8     1    1
    52     8     7   ar
    53    12     7   ar
    54    12     3    1
    55     7    29    1
