@<TRIPOS>MOLECULE
4516738.cif
 46 46 0 0 0
SMALL
GASTEIGER

@<TRIPOS>ATOM
      1 C          -0.3693    7.2127    1.5998 C.ar    1  LIG1        0.0185
      2 C           0.3632    6.6412    0.5537 C.ar    1  LIG1       -0.0506
      3 H           0.9268    5.8969    0.7294 H       1  LIG1        0.0625
      4 C           0.2787    7.1449   -0.7333 C.ar    1  LIG1       -0.0506
      5 H           0.7908    6.7507   -1.4291 H       1  LIG1        0.0625
      6 C          -0.5579    8.2325   -1.0151 C.ar    1  LIG1        0.0185
      7 C          -1.2585    8.8249    0.0321 C.ar    1  LIG1       -0.0506
      8 H          -1.8111    9.5787   -0.1399 H       1  LIG1        0.0625
      9 C          -1.1607    8.3285    1.3269 C.ar    1  LIG1       -0.0506
     10 H          -1.6364    8.7524    2.0316 H       1  LIG1        0.0625
     11 C          -0.2691    6.5673    2.9579 C.2     1  LIG1        0.1794
     12 C          -1.1080    7.0918    4.1433 C.3     1  LIG1        0.1244
     13 C          -0.6849    6.3551    5.4259 C.3     1  LIG1       -0.0424
     14 H           0.2737    6.4891    5.5788 H       1  LIG1        0.0244
     15 H          -0.8699    5.3978    5.3286 H       1  LIG1        0.0244
     16 H          -1.1891    6.7098    6.1872 H       1  LIG1        0.0244
     17 C          -2.6058    6.8546    3.9009 C.3     1  LIG1       -0.0424
     18 H          -3.1190    7.2064    4.6585 H       1  LIG1        0.0244
     19 H          -2.7740    5.8930    3.8105 H       1  LIG1        0.0244
     20 H          -2.8802    7.3134    3.0788 H       1  LIG1        0.0244
     21 C          -0.8217    8.5734    4.3761 C.2     1  LIG1        0.3201
     22 C           0.9010   10.1892    4.4736 C.3     1  LIG1        0.0817
     23 H           0.4477   10.7840    3.8402 H       1  LIG1        0.0661
     24 H           1.8711   10.2620    4.3537 H       1  LIG1        0.0661
     25 H           0.6646   10.4468    5.3890 H       1  LIG1        0.0661
     26 C          -0.6582    8.6940   -2.4432 C.2     1  LIG1        0.1794
     27 C          -1.6421    9.8126   -2.8429 C.3     1  LIG1        0.1244
     28 C          -3.0858    9.3112   -2.7031 C.3     1  LIG1       -0.0424
     29 H          -3.2689    9.1008   -1.7635 H       1  LIG1        0.0244
     30 H          -3.2061    8.5053   -3.2484 H       1  LIG1        0.0244
     31 H          -3.7044   10.0068   -3.0088 H       1  LIG1        0.0244
     32 C          -1.3803   10.2108   -4.3079 C.3     1  LIG1       -0.0424
     33 H          -1.9264   10.9923   -4.5363 H       1  LIG1        0.0244
     34 H          -1.6164    9.4641   -4.8969 H       1  LIG1        0.0244
     35 H          -0.4322   10.4307   -4.4225 H       1  LIG1        0.0244
     36 C          -1.4293   11.0836   -2.0291 C.2     1  LIG1        0.3201
     37 C           0.1983   12.5735   -1.1863 C.3     1  LIG1        0.0817
     38 H          -0.1932   13.3197   -1.6864 H       1  LIG1        0.0661
     39 H           1.1715   12.6815   -1.1468 H       1  LIG1        0.0661
     40 H          -0.1669   12.5620   -0.2763 H       1  LIG1        0.0661
     41 O           0.4454    5.5974    3.1004 O.2     1  LIG1       -0.2909
     42 O          -1.6328    9.4070    4.6896 O.2     1  LIG1       -0.2498
     43 O           0.4869    8.8229    4.2341 O.3     1  LIG1       -0.4673
     44 O           0.0017    8.1413   -3.2989 O.2     1  LIG1       -0.2909
     45 O          -2.3053   11.8176   -1.6481 O.2     1  LIG1       -0.2498
     46 O          -0.1224   11.3270   -1.8502 O.3     1  LIG1       -0.4673
@<TRIPOS>BOND
     1    34    32    1
     2    33    32    1
     3    35    32    1
     4    32    27    1
     5    44    26    2
     6    30    28    1
     7    31    28    1
     8    27    28    1
     9    27    26    1
    10    27    36    1
    11    28    29    1
    12    26     6    1
    13    36    46    1
    14    36    45    2
    15    46    37    1
    16    38    37    1
    17     5     4    1
    18    37    39    1
    19    37    40    1
    20     6     4   ar
    21     6     7   ar
    22     4     2   ar
    23     8     7    1
    24     7     9   ar
    25     2     3    1
    26     2     1   ar
    27     9     1   ar
    28     9    10    1
    29     1    11    1
    30    11    41    2
    31    11    12    1
    32    20    17    1
    33    19    17    1
    34    23    22    1
    35    17    12    1
    36    17    18    1
    37    12    21    1
    38    12    13    1
    39    43    21    1
    40    43    22    1
    41    24    22    1
    42    21    42    2
    43    22    25    1
    44    15    13    1
    45    13    14    1
    46    13    16    1
