@<TRIPOS>MOLECULE
4516169.cif
 69 75 0 0 0
SMALL
GASTEIGER

@<TRIPOS>ATOM
      1 S           8.0947    5.4654    3.8234 S.O2    1  LIG1        0.0641
      2 C           9.9166    3.6225    4.0591 C.3     1  LIG1        0.1760
      3 O          10.5200    2.5840    3.3240 O.3     1  LIG1       -0.3559
      4 N           9.3339    4.6316    3.1211 N.3     1  LIG1       -0.1377
      5 C          11.0525    4.2799    4.8796 C.3     1  LIG1        0.0559
      6 H          10.6437    4.9533    5.4613 H       1  LIG1        0.0392
      7 O          12.6627    4.2205    6.6723 O.3     1  LIG1       -0.4835
      8 C           8.6720    5.5418    0.2672 C.2     1  LIG1        0.1647
      9 O           8.5448    6.5312    4.6726 O.2     1  LIG1       -0.1527
     10 C          10.2922    5.3176    2.2215 C.3     1  LIG1        0.0427
     11 H          10.7383    4.6261    1.6905 H       1  LIG1        0.0485
     12 C          12.0489    5.0111    3.9550 C.3     1  LIG1       -0.0001
     13 H          12.4759    4.3362    3.3878 H       1  LIG1        0.0356
     14 C           8.6712    3.1701    4.8244 C.ar    1  LIG1        0.0272
     15 C          11.9219    3.3690    5.7662 C.3     1  LIG1        0.1328
     16 H          12.5641    2.9024    5.1897 H       1  LIG1        0.0789
     17 C           7.6289    4.0668    4.7696 C.ar    1  LIG1        0.1128
     18 C          11.3640    6.0211    3.0343 C.3     1  LIG1       -0.0277
     19 H          10.9631    6.7284    3.5633 H       1  LIG1        0.0287
     20 H          12.0180    6.4195    2.4396 H       1  LIG1        0.0287
     21 O           8.8405    4.3647    0.0208 O.2     1  LIG1       -0.2920
     22 C           9.5793    6.2460    1.2455 C.3     1  LIG1        0.0278
     23 H           9.0536    6.8853    1.7513 H       1  LIG1        0.0361
     24 H          10.2462    6.7443    0.7474 H       1  LIG1        0.0361
     25 C          11.2772    2.3542    6.6700 C.ar    1  LIG1       -0.0069
     26 C           9.6723    1.8829    2.4160 C.3     1  LIG1        0.0391
     27 H           9.2920    2.5032    1.7901 H       1  LIG1        0.0524
     28 H           8.9675    1.4504    2.9053 H       1  LIG1        0.0524
     29 H          10.1855    1.2239    1.9436 H       1  LIG1        0.0524
     30 O           7.1147    5.8127    2.8418 O.2     1  LIG1       -0.1527
     31 C           6.3710    3.8379    5.2926 C.ar    1  LIG1       -0.0349
     32 H           5.6940    4.4724    5.2335 H       1  LIG1        0.0637
     33 C          13.3402    5.2701    6.1125 C.ar    1  LIG1        0.1248
     34 C          13.1408    5.6527    4.8048 C.ar    1  LIG1       -0.0020
     35 C           7.1834    1.6738    5.9524 C.ar    1  LIG1       -0.0613
     36 H           7.0228    0.8516    6.3555 H       1  LIG1        0.0618
     37 C          14.2354    5.9189    6.9511 C.ar    1  LIG1       -0.0196
     38 H          14.3313    5.6535    7.8368 H       1  LIG1        0.0654
     39 C          11.5044    1.0036    6.4871 C.ar    1  LIG1       -0.0551
     40 H          12.0377    0.7153    5.7819 H       1  LIG1        0.0621
     41 C          10.1656    0.4998    8.4020 C.ar    1  LIG1       -0.0617
     42 H           9.7822   -0.1236    8.9756 H       1  LIG1        0.0618
     43 C          14.9761    6.9566    6.4533 C.ar    1  LIG1       -0.0583
     44 H          15.5567    7.4208    7.0118 H       1  LIG1        0.0619
     45 C          10.5104    2.7662    7.7459 C.ar    1  LIG1       -0.0551
     46 H          10.3650    3.6732    7.8925 H       1  LIG1        0.0621
     47 C           6.1734    2.6133    5.9084 C.ar    1  LIG1       -0.0599
     48 H           5.3500    2.4216    6.2981 H       1  LIG1        0.0618
     49 C          13.9504    6.6793    4.3343 C.ar    1  LIG1       -0.0548
     50 H          13.8683    6.9455    3.4468 H       1  LIG1        0.0622
     51 C           8.4338    1.9297    5.4082 C.ar    1  LIG1       -0.0526
     52 H           9.1008    1.2825    5.4326 H       1  LIG1        0.0622
     53 C           7.6394    6.3237   -0.4555 C.ar    1  LIG1        0.0174
     54 C          14.8685    7.3154    5.1340 C.ar    1  LIG1       -0.0613
     55 H          15.4118    7.9832    4.7831 H       1  LIG1        0.0618
     56 C           9.9590    1.8298    8.6078 C.ar    1  LIG1       -0.0614
     57 H           9.4448    2.1126    9.3282 H       1  LIG1        0.0618
     58 C          10.9405    0.0768    7.3492 C.ar    1  LIG1       -0.0614
     59 H          11.0868   -0.8317    7.2143 H       1  LIG1        0.0618
     60 C           5.6882    7.6711   -1.8272 C.ar    1  LIG1       -0.0617
     61 H           5.0081    8.1171   -2.2777 H       1  LIG1        0.0618
     62 C           5.9746    6.4243   -2.1579 C.ar    1  LIG1       -0.0611
     63 H           5.5243    6.0116   -2.8597 H       1  LIG1        0.0618
     64 C           6.9463    5.7398   -1.4594 C.ar    1  LIG1       -0.0513
     65 H           7.1293    4.8558   -1.6838 H       1  LIG1        0.0624
     66 C           6.3505    8.3008   -0.8638 C.ar    1  LIG1       -0.0611
     67 H           6.1478    9.1841   -0.6563 H       1  LIG1        0.0618
     68 C           7.3428    7.6323   -0.1704 C.ar    1  LIG1       -0.0513
     69 H           7.8155    8.0751    0.4960 H       1  LIG1        0.0624
@<TRIPOS>BOND
     1    63    62    1
     2    61    60    1
     3    62    60   ar
     4    62    64   ar
     5    60    66   ar
     6    65    64    1
     7    64    53   ar
     8    66    67    1
     9    66    68   ar
    10    53    68   ar
    11    53     8    1
    12    68    69    1
    13    21     8    2
    14     8    22    1
    15    24    22    1
    16    22    23    1
    17    22    10    1
    18    11    10    1
    19    27    26    1
    20    29    26    1
    21    10    18    1
    22    10     4    1
    23    26    28    1
    24    26     3    1
    25    20    18    1
    26    30     1    2
    27    18    19    1
    28    18    12    1
    29     4     1    1
    30     4     2    1
    31     3     2    1
    32    13    12    1
    33    50    49    1
    34     1     9    2
    35     1    17    1
    36    12    34    1
    37    12     5    1
    38     2    14    1
    39     2     5    1
    40    49    34   ar
    41    49    54   ar
    42    17    14   ar
    43    17    31   ar
    44    55    54    1
    45    34    33   ar
    46    14    51   ar
    47     5     6    1
    48     5    15    1
    49    54    43   ar
    50    16    15    1
    51    32    31    1
    52    31    47   ar
    53    51    52    1
    54    51    35   ar
    55    15    25    1
    56    15     7    1
    57    40    39    1
    58    47    35   ar
    59    47    48    1
    60    35    36    1
    61    33     7    1
    62    33    37   ar
    63    43    37   ar
    64    43    44    1
    65    39    25   ar
    66    39    58   ar
    67    25    45   ar
    68    37    38    1
    69    59    58    1
    70    58    41   ar
    71    45    46    1
    72    45    56   ar
    73    41    56   ar
    74    41    42    1
    75    56    57    1
