@<TRIPOS>MOLECULE
0.5 (C22 H18 O4), C12 H28 N, Br
 64 62 0 0 0
SMALL
GASTEIGER

@<TRIPOS>ATOM
      1 C           5.0206    7.2944   11.8802 C.ar    1  LIG1        0.1585
      2 C           6.3475    7.2815   11.4266 C.ar    1  LIG1        0.1588
      3 C           6.6561    6.6257   10.2252 C.ar    1  LIG1       -0.0085
      4 C           5.6664    6.0103    9.4816 C.ar    1  LIG1       -0.0101
      5 C           4.3370    6.0240    9.9384 C.ar    1  LIG1       -0.0283
      6 C           4.0270    6.6764   11.1235 C.ar    1  LIG1       -0.0122
      7 C           3.3472    5.3054    9.0043 C.3     1  LIG1        0.0146
      8 C           1.9049    5.3105    9.4971 C.3     1  LIG1       -0.0538
      9 C           3.9444    3.9041    8.8162 C.3     1  LIG1        0.0207
     10 C           3.3085    2.6888    9.0773 C.2     1  LIG1       -0.0752
     11 C           3.9728    1.4881    8.8254 C.2     1  LIG1       -0.0654
     12 N           4.4004    3.6218   14.1670 N.4     2  LIG2        0.2433
     13 C           5.3024    3.6829   12.9359 C.3     2  LIG2       -0.0303
     14 C           6.1325    2.4504   12.6676 C.3     2  LIG2       -0.0153
     15 C           7.0980    2.7009   11.5311 C.3     2  LIG2       -0.0605
     16 C           3.4679    2.4220   14.0919 C.3     2  LIG2       -0.0303
     17 C           2.5690    2.3669   12.8758 C.3     2  LIG2       -0.0153
     18 C           1.6165    1.1843   12.9683 C.3     2  LIG2       -0.0605
     19 C           3.6139    4.9249   14.1957 C.3     2  LIG2       -0.0303
     20 C           2.6274    5.1100   15.3132 C.3     2  LIG2       -0.0153
     21 C           1.8268    6.3890   15.0260 C.3     2  LIG2       -0.0605
     22 C           5.2248    3.4592   15.4441 C.3     2  LIG2       -0.0303
     23 C           6.2690    4.5135   15.6565 C.3     2  LIG2       -0.0153
     24 C           6.9874    4.2656   16.9758 C.3     2  LIG2       -0.0605
     25 BR          6.8852    8.2208   15.2425 Br      3  LIG3        0.0000
     26 O           4.6152    7.9253   13.0327 O.3     1  LIG1       -0.5033
     27 O           7.3768    7.9029   12.0715 O.3     1  LIG1       -0.5033
     28 H           7.5492    6.6188    9.9203 H       1  LIG1        0.0661
     29 H           3.1465    6.7160   11.4246 H       1  LIG1        0.0658
     30 H           1.8365    4.8871   10.3520 H       1  LIG1        0.0239
     31 H           1.3402    4.8604    8.8700 H       1  LIG1        0.0239
     32 H           1.5933    6.2194    9.5896 H       1  LIG1        0.0239
     33 H           2.4375    2.6957    9.4268 H       1  LIG1        0.0578
     34 H           3.5618    0.6705    9.0019 H       1  LIG1        0.0615
     35 H           4.7317    3.8163   12.1613 H       2  LIG2        0.0815
     36 H           5.8994    4.4541   13.0128 H       2  LIG2        0.0815
     37 H           5.5451    1.7093   12.4354 H       2  LIG2        0.0314
     38 H           6.6193    2.2301   13.4754 H       2  LIG2        0.0314
     39 H           7.5228    1.8703   11.2687 H       2  LIG2        0.0232
     40 H           6.6544    3.0830   10.7752 H       2  LIG2        0.0232
     41 H           7.7802    3.3051   11.8323 H       2  LIG2        0.0232
     42 H           4.0131    1.6233   14.1042 H       2  LIG2        0.0815
     43 H           2.8979    2.4427   14.8735 H       2  LIG2        0.0815
     44 H           3.1283    2.2774   12.0688 H       2  LIG2        0.0314
     45 H           2.0678    3.2044   12.8055 H       2  LIG2        0.0314
     46 H           1.0907    1.1060   12.1682 H       2  LIG2        0.0232
     47 H           2.1037    0.3821   13.1208 H       2  LIG2        0.0232
     48 H           1.0042    1.3238   13.7205 H       2  LIG2        0.0232
     49 H           3.1113    5.0067   13.3675 H       2  LIG2        0.0815
     50 H           4.2673    5.6651   14.2499 H       2  LIG2        0.0815
     51 H           2.0411    4.3612   15.3430 H       2  LIG2        0.0314
     52 H           3.1124    5.2064   16.1585 H       2  LIG2        0.0314
     53 H           1.1999    6.5516   15.7422 H       2  LIG2        0.0232
     54 H           1.3345    6.2917   14.2036 H       2  LIG2        0.0232
     55 H           2.4102    7.1559   14.9541 H       2  LIG2        0.0232
     56 H           5.6989    2.6045   15.3995 H       2  LIG2        0.0815
     57 H           4.6110    3.4772   16.1962 H       2  LIG2        0.0815
     58 H           6.8837    4.5755   14.9147 H       2  LIG2        0.0314
     59 H           5.7950    5.4241   15.7011 H       2  LIG2        0.0314
     60 H           7.4896    5.0489   17.2379 H       2  LIG2        0.0232
     61 H           7.5717    3.5280   16.8644 H       2  LIG2        0.0232
     62 H           6.3403    4.0659   17.6748 H       2  LIG2        0.0232
     63 H           7.2672    8.0432   12.8775 H       1  LIG1        0.2923
     64 H           5.2410    7.9606   13.5885 H       1  LIG1        0.2923
@<TRIPOS>BOND
     1     9     7    1
     2     9    10    1
     3    11    34    1
     4    11    10    2
     5    31     8    1
     6     7     8    1
     7     7     5    1
     8    10    33    1
     9     4     5   ar
    10     4     3   ar
    11     8    32    1
    12     8    30    1
    13    28     3    1
    14     5     6   ar
    15     3     2   ar
    16    40    15    1
    17     6    29    1
    18     6     1   ar
    19    39    15    1
    20     2     1   ar
    21     2    27    1
    22    15    41    1
    23    15    14    1
    24     1    26    1
    25    44    17    1
    26    27    63    1
    27    35    13    1
    28    46    18    1
    29    37    14    1
    30    14    13    1
    31    14    38    1
    32    45    17    1
    33    17    18    1
    34    17    16    1
    35    13    36    1
    36    13    12    1
    37    18    47    1
    38    18    48    1
    39    26    64    1
    40    49    19    1
    41    16    42    1
    42    16    12    1
    43    16    43    1
    44    12    19    1
    45    12    22    1
    46    19    50    1
    47    19    20    1
    48    54    21    1
    49    58    23    1
    50    55    21    1
    51    21    20    1
    52    21    53    1
    53    20    51    1
    54    20    52    1
    55    56    22    1
    56    22    23    1
    57    22    57    1
    58    23    59    1
    59    23    24    1
    60    61    24    1
    61    24    60    1
    62    24    62    1
