@<TRIPOS>MOLECULE
1,2-Bis(4-pyridyl)ethene - 2,3-dihydroxybenzoic acid complex
 29 29 0 0 0
SMALL
GASTEIGER

@<TRIPOS>ATOM
      1 C           6.8477   -5.6502   -2.6211 C.2     1  LIG1       -0.0098
      2 H           7.7112   -6.0333   -2.4298 H       1  LIG1        0.0778
      3 C           6.1485   -5.9164   -3.7707 C.2     1  LIG1       -0.0589
      4 H           6.5401   -6.5058   -4.4253 H       1  LIG1        0.0593
      5 C           4.9116   -5.3167   -3.9944 C.3     1  LIG1        0.0258
      6 C           4.4078   -4.4926   -2.9881 C.2     1  LIG1       -0.0589
      7 H           3.5855   -4.0775   -3.0611 H       1  LIG1        0.0593
      8 C           5.1450   -4.2727   -1.8564 C.2     1  LIG1       -0.0098
      9 H           4.8637   -3.7009   -1.1564 H       1  LIG1        0.0778
     10 C           4.2052   -5.5547   -5.2573 C.3     1  LIG1       -0.0188
     11 H           4.5580   -6.2127   -5.7699 H       1  LIG1        0.0319
     12 C           1.4345   -2.0146   -2.7612 C.ar    2  LIG2        0.1081
     13 C           0.7767   -2.8558   -1.8536 C.ar    2  LIG2        0.1726
     14 C           1.3075   -3.0303   -0.5621 C.ar    2  LIG2        0.1591
     15 C           2.4796   -2.4040   -0.2145 C.ar    2  LIG2       -0.0165
     16 H           2.8622   -2.5212    0.6608 H       2  LIG2        0.0655
     17 C           3.1092   -1.5350   -1.1006 C.ar    2  LIG2       -0.0573
     18 H           3.9379   -1.0911   -0.8150 H       2  LIG2        0.0619
     19 C           2.5884   -1.3373   -2.3607 C.ar    2  LIG2       -0.0438
     20 H           3.0423   -0.7093   -2.9364 H       2  LIG2        0.0627
     21 C           0.8863   -1.8419   -4.1416 C.2     2  LIG2        0.3902
     22 N           6.3427   -4.8300   -1.6944 N.pl3   1  LIG1       -0.3269
     23 H           6.8608   -4.6105   -0.8643 H       1  LIG1        0.1510
     24 O          -0.3759   -3.4873   -2.1557 O.3     2  LIG2       -0.5028
     25 H          -0.5209   -3.1919   -3.0983 H       2  LIG2        0.2923
     26 O           0.6670   -3.7972    0.3657 O.3     2  LIG2       -0.5033
     27 H          -0.1581   -3.9440    0.1182 H       2  LIG2        0.2923
     28 O           1.5572   -1.1393   -4.9511 O.co2   2  LIG2       -0.2405
     29 O          -0.2008   -2.3965   -4.4387 O.co2   2  LIG2       -0.2405
@<TRIPOS>BOND
     1    11    10    1
     2    10     5    1
     3    28    21   ar
     4    29    21   ar
     5     4     3    1
     6    21    12    1
     7     5     3    1
     8     5     6    1
     9     3     1    2
    10    25    24    1
    11     7     6    1
    12     6     8    2
    13    20    19    1
    14    12    19   ar
    15    12    13   ar
    16     1     2    1
    17     1    22    1
    18    19    17   ar
    19    24    13    1
    20     8    22    1
    21     8     9    1
    22    13    14   ar
    23    22    23    1
    24    17    18    1
    25    17    15   ar
    26    14    15   ar
    27    14    26    1
    28    15    16    1
    29    27    26    1
