@<TRIPOS>MOLECULE
(2Z)-2-(4-benzylpyridinium-1-yl-3-carboxy-1-hydroxyprop-2-en-1-olate
 34 35 0 0 0
SMALL
GASTEIGER

@<TRIPOS>ATOM
      1 O           2.6973    1.9263   10.5606 O.2     1  LIG1       -0.2457
      2 O           1.8432   -1.2284   13.3415 O.co2   1  LIG1       -0.2392
      3 N           1.0054    1.9166   14.9161 N.pl3   1  LIG1       -0.2771
      4 O           2.8224   -0.1225   11.4013 O.3     1  LIG1       -0.4775
      5 O           0.2691   -0.6807   14.8279 O.co2   1  LIG1       -0.2392
      6 C           1.4647    1.0758   13.8141 C.2     1  LIG1        0.1335
      7 C           0.5475    4.6305   19.2390 C.ar    1  LIG1       -0.0462
      8 C           1.9084    2.5515   15.6910 C.2     1  LIG1       -0.0015
      9 H           2.8365    2.4484   15.5135 H       1  LIG1        0.0784
     10 C           2.5438    1.1528   11.4879 C.2     1  LIG1        0.3316
     11 C           0.6752    3.5913   20.1545 C.ar    1  LIG1       -0.0585
     12 H           0.2251    2.7700   19.9960 H       1  LIG1        0.0620
     13 C          -0.3215    2.0399   15.1594 C.2     1  LIG1       -0.0015
     14 H          -0.9482    1.5874   14.6074 H       1  LIG1        0.0784
     15 C           1.4995    3.3399   16.7270 C.2     1  LIG1       -0.0583
     16 H           2.1441    3.7807   17.2670 H       1  LIG1        0.0594
     17 C           2.0196    1.7035   12.7850 C.2     1  LIG1        0.0511
     18 H           2.0979    2.6452   12.8834 H       1  LIG1        0.0710
     19 C          -0.7628    2.8122   16.1962 C.2     1  LIG1       -0.0583
     20 H          -1.6935    2.8774   16.3715 H       1  LIG1        0.0594
     21 C           1.1537   -0.3986   14.0314 C.2     1  LIG1        0.4010
     22 C           2.0234    5.9603   20.6140 C.ar    1  LIG1       -0.0615
     23 H           2.4941    6.7711   20.7658 H       1  LIG1        0.0618
     24 C          -0.3508    4.4673   18.0400 C.3     1  LIG1       -0.0139
     25 H          -1.2395    4.1631   18.3522 H       1  LIG1        0.0325
     26 H          -0.4722    5.3538   17.6171 H       1  LIG1        0.0325
     27 C           1.4486    3.7366   21.2945 C.ar    1  LIG1       -0.0615
     28 H           1.5243    3.0202   21.9151 H       1  LIG1        0.0618
     29 C           1.2460    5.8119   19.4737 C.ar    1  LIG1       -0.0585
     30 H           1.1900    6.5234   18.8466 H       1  LIG1        0.0620
     31 C           0.1419    3.5032   16.9951 C.3     1  LIG1        0.0265
     32 C           2.1109    4.9292   21.5276 C.ar    1  LIG1       -0.0617
     33 H           2.6273    5.0384   22.3187 H       1  LIG1        0.0618
     34 H           2.4662   -0.6022   12.2847 H       1  LIG1        0.2954
@<TRIPOS>BOND
     1     1    10    2
     2     4    10    1
     3     4    34    1
     4    10    17    1
     5    17    18    1
     6    17     6    2
     7     2    21   ar
     8     6    21    1
     9     6     3    1
    10    21     5   ar
    11    14    13    1
    12     3    13    1
    13     3     8    1
    14    13    19    2
    15     9     8    1
    16     8    15    2
    17    19    20    1
    18    19    31    1
    19    15    31    1
    20    15    16    1
    21    31    24    1
    22    26    24    1
    23    24    25    1
    24    24     7    1
    25    30    29    1
    26     7    29   ar
    27     7    11   ar
    28    29    22   ar
    29    12    11    1
    30    11    27   ar
    31    22    23    1
    32    22    32   ar
    33    27    32   ar
    34    27    28    1
    35    32    33    1
