@<TRIPOS>MOLECULE
18-crown-6: benzene sulfonamide 1:1 cocrystal
 59 59 0 0 0
SMALL
GASTEIGER

@<TRIPOS>ATOM
      1 S           7.6228    3.5156   11.6201 S.O2    1  LIG1        0.0559
      2 O           8.4573    3.4511   12.7840 O.2     1  LIG1       -0.1533
      3 O           8.2148    3.4202   10.3131 O.2     1  LIG1       -0.1533
      4 O           8.0433    7.3149   13.6491 O.3     2  LIG2       -0.3752
      5 O           4.6139    4.9986    9.7219 O.3     2  LIG2       -0.3752
      6 O           8.7990    7.2116   10.8375 O.3     2  LIG2       -0.3752
      7 O           6.8225    6.5726    8.8006 O.3     2  LIG2       -0.3752
      8 O           5.9317    5.5277   14.4578 O.3     2  LIG2       -0.3752
      9 O           3.8782    5.2838   12.5146 O.3     2  LIG2       -0.3752
     10 C           6.4726    2.1766   11.7398 C.ar    1  LIG1        0.1050
     11 C           6.1367    1.6572   12.9829 C.ar    1  LIG1       -0.0354
     12 H           6.5156    2.0094   13.7551 H       1  LIG1        0.0637
     13 N           6.8137    4.8797   11.6987 N.3     1  LIG1       -0.2035
     14 C           8.2315    6.6104    8.6240 C.3     2  LIG2        0.0711
     15 C           5.2361    0.6132   13.0630 C.ar    1  LIG1       -0.0599
     16 H           5.0163    0.2578   13.8946 H       1  LIG1        0.0618
     17 C           5.9005    1.6579   10.6023 C.ar    1  LIG1       -0.0354
     18 H           6.1254    2.0044    9.7700 H       1  LIG1        0.0637
     19 C           4.6581    0.0920   11.9268 C.ar    1  LIG1       -0.0616
     20 H           4.0508   -0.6098   11.9896 H       1  LIG1        0.0618
     21 C           8.0986    6.4617   14.7696 C.3     2  LIG2        0.0711
     22 C           4.7537    5.4930    8.3915 C.3     2  LIG2        0.0711
     23 C           6.2070    5.5329    8.0530 C.3     2  LIG2        0.0711
     24 C           6.7280    6.2923   15.3408 C.3     2  LIG2        0.0711
     25 C           9.2469    8.1792   11.7687 C.3     2  LIG2        0.0711
     26 C           4.9863    0.6172   10.6952 C.ar    1  LIG1       -0.0599
     27 H           4.5947    0.2727    9.9250 H       1  LIG1        0.0618
     28 C           3.7854    4.7347   13.8142 C.3     2  LIG2        0.0711
     29 C           3.2768    5.1209   10.2195 C.3     2  LIG2        0.0711
     30 C           8.8006    7.6769    9.5024 C.3     2  LIG2        0.0711
     31 C           4.5422    5.5905   14.7715 C.3     2  LIG2        0.0711
     32 C           3.1906    4.4816   11.5634 C.3     2  LIG2        0.0711
     33 C           9.3418    7.5465   13.1205 C.3     2  LIG2        0.0711
     34 H           8.6219    8.9744   11.7897 H       2  LIG2        0.0583
     35 H           9.7058    7.9416    9.2848 H       2  LIG2        0.0583
     36 H           4.2281    6.5106   14.6852 H       2  LIG2        0.0583
     37 H           2.6939    4.6070    9.6459 H       2  LIG2        0.0583
     38 H           6.3255    5.6976    7.0806 H       2  LIG2        0.0583
     39 H           8.5098    5.6332   14.5580 H       2  LIG2        0.0583
     40 H           6.6356    4.6351    8.2819 H       2  LIG2        0.0583
     41 H           8.6646    6.8411   15.4695 H       2  LIG2        0.0583
     42 H           4.2203    4.8664    7.7332 H       2  LIG2        0.0583
     43 H           9.8476    6.7337   13.0592 H       2  LIG2        0.0583
     44 H           2.2598    4.4318   11.7788 H       2  LIG2        0.0583
     45 H           4.3468    6.3635    8.3284 H       2  LIG2        0.0583
     46 H           4.4225    5.2878   15.7051 H       2  LIG2        0.0583
     47 H          10.1238    8.4803   11.5432 H       2  LIG2        0.0583
     48 H           2.8350    4.7607   14.0434 H       2  LIG2        0.0583
     49 H           6.7667    5.8777   16.2151 H       2  LIG2        0.0583
     50 H           8.4697    6.8031    7.6851 H       2  LIG2        0.0583
     51 H           6.2686    7.1848   15.5082 H       2  LIG2        0.0583
     52 H           6.2505    5.0499   11.0394 H       1  LIG1        0.1442
     53 H           4.1329    3.8651   13.8466 H       2  LIG2        0.0583
     54 H           8.6311    5.7174    8.8787 H       2  LIG2        0.0583
     55 H           9.8494    8.1498   13.7443 H       2  LIG2        0.0583
     56 H           8.2794    8.5018    9.4351 H       2  LIG2        0.0583
     57 H           3.5434    3.5924   11.5572 H       2  LIG2        0.0583
     58 H           3.0741    6.0446   10.2815 H       2  LIG2        0.0583
     59 H           6.5521    5.0961   12.5073 H       1  LIG1        0.1442
@<TRIPOS>BOND
     1    38    23    1
     2    50    14    1
     3    42    22    1
     4    23    40    1
     5    23    22    1
     6    23     7    1
     7    45    22    1
     8    22     5    1
     9    14     7    1
    10    14    54    1
    11    14    30    1
    12    35    30    1
    13    56    30    1
    14    30     6    1
    15    37    29    1
    16     5    29    1
    17    18    17    1
    18    27    26    1
    19    29    58    1
    20    29    32    1
    21     3     1    2
    22    17    26   ar
    23    17    10   ar
    24    26    19   ar
    25     6    25    1
    26    52    13    1
    27    47    25    1
    28    57    32    1
    29    32    44    1
    30    32     9    1
    31     1    13    1
    32     1    10    1
    33     1     2    2
    34    13    59    1
    35    10    11   ar
    36    25    34    1
    37    25    33    1
    38    19    20    1
    39    19    15   ar
    40     9    28    1
    41    11    15   ar
    42    11    12    1
    43    43    33    1
    44    15    16    1
    45    33     4    1
    46    33    55    1
    47     4    21    1
    48    28    53    1
    49    28    48    1
    50    28    31    1
    51     8    31    1
    52     8    24    1
    53    39    21    1
    54    36    31    1
    55    21    24    1
    56    21    41    1
    57    31    46    1
    58    24    51    1
    59    24    49    1
