@<TRIPOS>MOLECULE
4517981.cif
 51 52 0 0 0
SMALL
GASTEIGER

@<TRIPOS>ATOM
      1 O           5.6915    7.5253    6.6728 O.3     1  LIG1       -0.5029
      2 H           5.3741    7.0695    5.9237 H       1  LIG1        0.2923
      3 O           6.3368    8.3675    9.0693 O.3     1  LIG1       -0.5031
      4 H           6.6091    8.4358    8.3726 H       1  LIG1        0.2923
      5 BR          3.3016    5.0340   -0.7026 Br      1  LIG1       -0.0503
      6 N           4.1399    6.4616    5.0923 N.2     1  LIG1       -0.2549
      7 C           4.8152    7.2457    7.6489 C.ar    1  LIG1        0.1676
      8 C           5.1719    7.6782    8.9255 C.ar    1  LIG1        0.1626
      9 C           4.3597    7.3966   10.0028 C.ar    1  LIG1        0.0034
     10 C           3.1810    6.6707    9.7485 C.ar    1  LIG1       -0.0501
     11 H           2.6234    6.4645   10.4897 H       1  LIG1        0.0625
     12 C           2.7762    6.2371    8.5096 C.ar    1  LIG1       -0.0294
     13 C           3.6151    6.5566    7.4060 C.ar    1  LIG1        0.0418
     14 C           4.7396    7.8419   11.4137 C.3     1  LIG1       -0.0091
     15 C           3.6908    7.4315   12.4379 C.3     1  LIG1       -0.0559
     16 H           2.8262    7.8257   12.1972 H       1  LIG1        0.0238
     17 H           3.9584    7.7493   13.3247 H       1  LIG1        0.0238
     18 H           3.6118    6.4543   12.4508 H       1  LIG1        0.0238
     19 C           4.8680    9.3644   11.4676 C.3     1  LIG1       -0.0559
     20 H           4.0155    9.7732   11.2089 H       1  LIG1        0.0238
     21 H           5.5704    9.6560   10.8493 H       1  LIG1        0.0238
     22 H           5.0995    9.6407   12.3783 H       1  LIG1        0.0238
     23 C           6.0733    7.1993   11.8146 C.3     1  LIG1       -0.0559
     24 H           5.9803    6.2232   11.8111 H       1  LIG1        0.0238
     25 H           6.3243    7.5012   12.7129 H       1  LIG1        0.0238
     26 H           6.7685    7.4621   11.1755 H       1  LIG1        0.0238
     27 C           1.4902    5.4012    8.3641 C.3     1  LIG1       -0.0119
     28 C           0.8509    5.1183    9.7172 C.3     1  LIG1       -0.0560
     29 H           0.0536    4.5629    9.5921 H       1  LIG1        0.0238
     30 H           0.5969    5.9649   10.1413 H       1  LIG1        0.0238
     31 H           1.4915    4.6462   10.2890 H       1  LIG1        0.0238
     32 C           0.4281    6.1348    7.5427 C.3     1  LIG1       -0.0560
     33 H          -0.3931    5.5995    7.5182 H       1  LIG1        0.0238
     34 H           0.7575    6.2708    6.6289 H       1  LIG1        0.0238
     35 H           0.2396    7.0032    7.9544 H       1  LIG1        0.0238
     36 C           1.8191    4.0277    7.7656 C.3     1  LIG1       -0.0560
     37 H           0.9971    3.4991    7.6896 H       1  LIG1        0.0238
     38 H           2.4543    3.5619    8.3475 H       1  LIG1        0.0238
     39 H           2.2159    4.1448    6.8770 H       1  LIG1        0.0238
     40 C           3.3096    6.2179    6.0389 C.2     1  LIG1        0.0393
     41 H           2.4779    5.8068    5.8358 H       1  LIG1        0.0837
     42 C           3.8841    6.1109    3.7631 C.ar    1  LIG1        0.0639
     43 C           3.1005    5.0219    3.4016 C.ar    1  LIG1       -0.0353
     44 H           2.6851    4.4966    4.0755 H       1  LIG1        0.0639
     45 C           2.9212    4.6983    2.0741 C.ar    1  LIG1       -0.0458
     46 H           2.3931    3.9477    1.8259 H       1  LIG1        0.0629
     47 C           3.5211    5.4824    1.1130 C.ar    1  LIG1        0.0180
     48 C           4.3049    6.5641    1.4503 C.ar    1  LIG1       -0.0458
     49 H           4.7108    7.0933    0.7736 H       1  LIG1        0.0629
     50 C           4.4932    6.8700    2.7781 C.ar    1  LIG1       -0.0353
     51 H           5.0444    7.6048    3.0204 H       1  LIG1        0.0639
@<TRIPOS>BOND
     1     5    47    1
     2    49    48    1
     3    47    48   ar
     4    47    45   ar
     5    48    50   ar
     6    46    45    1
     7    45    43   ar
     8    50    51    1
     9    50    42   ar
    10    43    42   ar
    11    43    44    1
    12    42     6    1
    13     6    40    2
    14    41    40    1
    15     2     1    1
    16    40    13    1
    17    34    32    1
    18     1     7    1
    19    39    36    1
    20    13     7   ar
    21    13    12   ar
    22    33    32    1
    23    32    35    1
    24    32    27    1
    25     7     8   ar
    26    37    36    1
    27    36    38    1
    28    36    27    1
    29    27    12    1
    30    27    28    1
    31     4     3    1
    32    12    10   ar
    33     8     3    1
    34     8     9   ar
    35    29    28    1
    36    28    30    1
    37    28    31    1
    38    10     9   ar
    39    10    11    1
    40     9    14    1
    41    21    19    1
    42    26    23    1
    43    20    19    1
    44    14    19    1
    45    14    23    1
    46    14    15    1
    47    19    22    1
    48    24    23    1
    49    23    25    1
    50    16    15    1
    51    15    18    1
    52    15    17    1
