@<TRIPOS>MOLECULE
C23 H24 O5
 104 108 0 0 0
SMALL
GASTEIGER

@<TRIPOS>ATOM
      1 O           2.1954    3.9387    2.1740 O.3     1  LIG1       -0.4671
      2 O          -6.9514    8.3732   10.2604 O.2     2  LIG2       -0.2496
      3 O          -8.3609    5.9739    8.4562 O.3     2  LIG2       -0.3751
      4 O          -6.3348   10.8903    8.1171 O.3     2  LIG2       -0.4671
      5 O           1.2567    6.8705    2.1281 O.3     1  LIG1       -0.3751
      6 O          -8.7123    8.9148    8.9915 O.3     2  LIG2       -0.4671
      7 O           0.5630    4.0005    0.6378 O.2     1  LIG1       -0.2496
      8 O           0.1210    1.8024    3.0678 O.3     1  LIG1       -0.4671
      9 O          -7.0425   10.2037    6.0991 O.2     2  LIG2       -0.2496
     10 O           0.3074    2.8656    5.0380 O.2     1  LIG1       -0.2496
     11 C          -4.1689    8.5794    7.0952 C.ar    2  LIG2       -0.0389
     12 C          -5.1982    8.1658    8.1399 C.3     2  LIG2        0.0290
     13 H          -4.9446    8.6174    8.9721 H       2  LIG2        0.0408
     14 C          -5.8660    4.3427    8.5627 C.ar    2  LIG2       -0.0197
     15 C          -6.0350    5.7714    8.1662 C.2     2  LIG2       -0.0150
     16 C          -1.4949    8.0730    1.6960 C.ar    1  LIG1       -0.0197
     17 C          -1.4778    4.2358    2.5061 C.3     1  LIG1        0.0290
     18 H          -1.5429    3.6540    1.7202 H       1  LIG1        0.0408
     19 C          -7.4297    8.6018    9.1847 C.2     2  LIG2        0.3250
     20 C          -7.3253    6.1500    7.4825 C.3     2  LIG2        0.0851
     21 H          -7.4820    5.5176    6.7504 H       2  LIG2        0.0646
     22 C           0.9229    4.0329    1.7865 C.2     1  LIG1        0.3250
     23 C          -6.7174    9.9672    7.2293 C.2     2  LIG2        0.3250
     24 C          -7.3151    7.5586    6.9020 C.3     2  LIG2        0.0046
     25 H          -8.2260    7.8335    6.7158 H       2  LIG2        0.0310
     26 H          -6.8277    7.5537    6.0632 H       2  LIG2        0.0310
     27 C          -5.1028    6.6901    8.4113 C.2     2  LIG2       -0.0688
     28 H          -4.3092    6.3870    8.7900 H       2  LIG2        0.0582
     29 C          -1.0882    6.7383    2.2430 C.2     1  LIG1       -0.0150
     30 C          -6.6692    8.5693    7.8517 C.3     2  LIG2        0.1764
     31 C           0.3274    5.3818    3.8382 C.3     1  LIG1        0.0046
     32 H          -0.2603    5.4112    4.6091 H       1  LIG1        0.0310
     33 H           1.2388    5.3063    4.1624 H       1  LIG1        0.0310
     34 C          -2.6561    8.2281    0.9405 C.ar    1  LIG1       -0.0543
     35 H          -3.1794    7.4813    0.7569 H       1  LIG1        0.0624
     36 C          -6.7166    3.3525    8.0744 C.ar    2  LIG2       -0.0543
     37 H          -7.4060    3.5853    7.4954 H       2  LIG2        0.0624
     38 C           0.1858    6.6752    3.0567 C.3     1  LIG1        0.0851
     39 H           0.1852    7.4221    3.6911 H       1  LIG1        0.0646
     40 C          -4.8573    3.9488    9.4435 C.ar    2  LIG2       -0.0543
     41 H          -4.2851    4.5901    9.7986 H       2  LIG2        0.0624
     42 C          -0.0075    4.1493    3.0021 C.3     1  LIG1        0.1764
     43 C           0.1749    2.8873    3.8452 C.2     1  LIG1        0.3250
     44 C          -3.2607    9.5868    7.3933 C.ar    2  LIG2       -0.0580
     45 H          -3.3391   10.0450    8.1988 H       2  LIG2        0.0620
     46 C          -2.1275    9.2732    5.3130 C.ar    2  LIG2       -0.0617
     47 H          -1.4436    9.4967    4.7235 H       2  LIG2        0.0618
     48 C          -1.8007    5.6242    2.0397 C.2     1  LIG1       -0.0688
     49 H          -2.5872    5.7219    1.5528 H       1  LIG1        0.0582
     50 C          -3.0334    8.2859    4.9822 C.ar    2  LIG2       -0.0615
     51 H          -2.9736    7.8611    4.1570 H       2  LIG2        0.0618
     52 C          -2.9595    2.4100    3.4285 C.ar    1  LIG1       -0.0580
     53 H          -2.6231    1.8512    2.7656 H       1  LIG1        0.0620
     54 C          -2.5011    3.7204    3.5171 C.ar    1  LIG1       -0.0389
     55 C           3.1555    3.8475    1.0924 C.3     1  LIG1        0.0817
     56 H           2.9340    3.1022    0.5294 H       1  LIG1        0.0661
     57 H           4.0358    3.7235    1.4554 H       1  LIG1        0.0661
     58 H           3.1338    4.6563    0.5758 H       1  LIG1        0.0661
     59 C          -4.0322    7.9239    5.8743 C.ar    2  LIG2       -0.0580
     60 H          -4.6171    7.2354    5.6543 H       2  LIG2        0.0620
     61 C          -2.2405    9.9253    6.5191 C.ar    2  LIG2       -0.0615
     62 H          -1.6333   10.5919    6.7473 H       2  LIG2        0.0618
     63 C          -3.0206    4.5264    4.5123 C.ar    1  LIG1       -0.0580
     64 H          -2.7295    5.4064    4.5887 H       1  LIG1        0.0620
     65 C          -6.5505    2.0288    8.4387 C.ar    2  LIG2       -0.0612
     66 H          -7.1280    1.3833    8.1004 H       2  LIG2        0.0618
     67 C          -9.6575    5.7941    7.9029 C.3     2  LIG2        0.0372
     68 H          -9.6352    5.0806    7.2610 H       2  LIG2        0.0524
     69 H          -9.9363    6.6047    7.4711 H       2  LIG2        0.0524
     70 H         -10.2765    5.5751    8.6033 H       2  LIG2        0.0524
     71 C          -4.6932    2.6214    9.7977 C.ar    2  LIG2       -0.0612
     72 H          -4.0080    2.3788   10.3776 H       2  LIG2        0.0618
     73 C          -4.4193    2.7433    5.2965 C.ar    1  LIG1       -0.0617
     74 H          -5.0609    2.4210    5.8872 H       1  LIG1        0.0618
     75 C          -9.5404    8.7900   10.1720 C.3     2  LIG2        0.0817
     76 H         -10.4503    8.9995    9.9481 H       2  LIG2        0.0661
     77 H          -9.2293    9.3984   10.8467 H       2  LIG2        0.0661
     78 H          -9.4913    7.8912   10.5043 H       2  LIG2        0.0661
     79 C          -0.7408    9.2248    1.9227 C.ar    1  LIG1       -0.0543
     80 H           0.0525    9.1605    2.4044 H       1  LIG1        0.0624
     81 C          -3.9088    1.9244    4.3114 C.ar    1  LIG1       -0.0615
     82 H          -4.2028    1.0450    4.2399 H       1  LIG1        0.0618
     83 C          -6.3461   12.2617    7.6388 C.3     2  LIG2        0.0817
     84 H          -5.7486   12.3451    6.8920 H       2  LIG2        0.0661
     85 H          -6.0617   12.8486    8.3433 H       2  LIG2        0.0661
     86 H          -7.2354   12.4978    7.3650 H       2  LIG2        0.0661
     87 C          -3.0510    9.4599    0.4574 C.ar    1  LIG1       -0.0612
     88 H          -3.8292    9.5295   -0.0474 H       1  LIG1        0.0618
     89 C          -3.9721    4.0399    5.4001 C.ar    1  LIG1       -0.0615
     90 H          -4.3082    4.5935    6.0676 H       1  LIG1        0.0618
     91 C           2.4859    7.2693    2.7309 C.3     1  LIG1        0.0372
     92 H           3.1097    7.5229    2.0473 H       1  LIG1        0.0524
     93 H           2.8457    6.5369    3.2371 H       1  LIG1        0.0524
     94 H           2.3287    8.0149    3.3144 H       1  LIG1        0.0524
     95 C          -2.3010   10.5889    0.7176 C.ar    1  LIG1       -0.0617
     96 H          -2.5727   11.4212    0.4042 H       1  LIG1        0.0618
     97 C          -5.5414    1.6557    9.2951 C.ar    2  LIG2       -0.0617
     98 H          -5.4313    0.7633    9.5327 H       2  LIG2        0.0618
     99 C          -1.1434   10.4602    1.4487 C.ar    1  LIG1       -0.0612
    100 H          -0.6262   11.2122    1.6265 H       1  LIG1        0.0618
    101 C           0.2032    0.5247    3.7581 C.3     1  LIG1        0.0817
    102 H           0.2560   -0.1849    3.1133 H       1  LIG1        0.0661
    103 H          -0.5790    0.4040    4.3022 H       1  LIG1        0.0661
    104 H           0.9849    0.5106    4.3144 H       1  LIG1        0.0661
@<TRIPOS>BOND
     1    88    87    1
     2    96    95    1
     3    87    95   ar
     4    87    34   ar
     5    56    55    1
     6    58    55    1
     7     7    22    2
     8    95    99   ar
     9    35    34    1
    10    34    16   ar
    11    55    57    1
    12    55     1    1
    13    99   100    1
    14    99    79   ar
    15    49    48    1
    16    16    79   ar
    17    16    29    1
    18    18    17    1
    19    22     1    1
    20    22    42    1
    21    79    80    1
    22    48    29    2
    23    48    17    1
    24    92    91    1
    25     5    91    1
    26     5    38    1
    27    29    38    1
    28    17    42    1
    29    17    54    1
    30    91    93    1
    31    91    94    1
    32    53    52    1
    33    42    31    1
    34    42    43    1
    35    38    39    1
    36    38    31    1
    37     8   101    1
    38     8    43    1
    39   102   101    1
    40    52    54   ar
    41    52    81   ar
    42    54    63   ar
    43   101   103    1
    44   101   104    1
    45    31    33    1
    46    31    32    1
    47    43    10    2
    48    51    50    1
    49    82    81    1
    50    81    73   ar
    51    63    64    1
    52    63    89   ar
    53    47    46    1
    54    50    46   ar
    55    50    59   ar
    56    73    89   ar
    57    73    74    1
    58    46    61   ar
    59    89    90    1
    60    60    59    1
    61    59    11   ar
    62    26    24    1
    63     9    23    2
    64    61    62    1
    65    61    44   ar
    66    25    24    1
    67    21    20    1
    68    84    83    1
    69    24    20    1
    70    24    30    1
    71    11    44   ar
    72    11    12    1
    73    23    30    1
    74    23     4    1
    75    68    67    1
    76    86    83    1
    77    44    45    1
    78    69    67    1
    79    20    15    1
    80    20     3    1
    81    37    36    1
    82    83     4    1
    83    83    85    1
    84    30    12    1
    85    30    19    1
    86    67     3    1
    87    67    70    1
    88    36    65   ar
    89    36    14   ar
    90    66    65    1
    91    12    27    1
    92    12    13    1
    93    15    27    2
    94    15    14    1
    95    27    28    1
    96    65    97   ar
    97    14    40   ar
    98     6    19    1
    99     6    75    1
   100    19     2    2
   101    97    98    1
   102    97    71   ar
   103    40    71   ar
   104    40    41    1
   105    71    72    1
   106    76    75    1
   107    75    78    1
   108    75    77    1
