@<TRIPOS>MOLECULE
BPy3-TXDMAc
 65 72 0 0 0
SMALL
GASTEIGER

@<TRIPOS>ATOM
      1 S           6.4819    8.6644   11.0140 S.3     1  LIG1       -0.0888
      2 O          -0.1492   -1.4143    8.2542 O.2     1  LIG1       -0.2866
      3 N           2.2293    1.5201    9.9498 N.ar    1  LIG1       -0.2389
      4 C           3.6303    5.7786   10.4372 C.ar    1  LIG1       -0.0064
      5 C           5.8186    6.4192    9.4963 C.ar    1  LIG1       -0.0143
      6 C           5.6159    4.2387   10.6754 C.ar    1  LIG1       -0.0064
      7 C           5.1394    5.7003   10.6821 C.3     1  LIG1        0.0759
      8 C           2.9084    4.6946    9.9274 C.ar    1  LIG1        0.0448
      9 C           4.8320    3.1949   10.1899 C.ar    1  LIG1        0.0448
     10 C           2.7834    2.4030    9.1067 C.ar    1  LIG1        0.1299
     11 C           1.4310    0.3162    8.0246 C.ar    1  LIG1        0.0405
     12 C           1.5633    0.4971    9.3914 C.ar    1  LIG1        0.0405
     13 H           1.1675   -0.1276    9.9554 H       1  LIG1        0.0837
     14 C           5.8248    5.7809    8.2517 C.ar    1  LIG1       -0.0560
     15 H           5.4604    4.9280    8.1833 H       1  LIG1        0.0621
     16 C           2.6675    2.3359    7.7466 C.ar    1  LIG1       -0.0204
     17 H           3.0478    2.9926    7.2082 H       1  LIG1        0.0652
     18 C           1.0909   -1.5347    6.2464 C.ar    1  LIG1        0.0223
     19 C           5.3432    1.8909   10.1527 C.ar    1  LIG1       -0.0397
     20 H           4.8164    1.1939    9.8336 H       1  LIG1        0.0636
     21 C           6.9083    3.9459   11.1215 C.ar    1  LIG1       -0.0553
     22 H           7.4391    4.6351   11.4515 H       1  LIG1        0.0621
     23 C           5.4416    6.2901   12.0521 C.ar    1  LIG1       -0.0143
     24 C           1.5439    4.8468    9.6456 C.ar    1  LIG1       -0.0397
     25 H           1.0565    4.1292    9.3112 H       1  LIG1        0.0636
     26 C           6.6364    1.6403   10.5924 C.ar    1  LIG1       -0.0600
     27 H           6.9779    0.7756   10.5546 H       1  LIG1        0.0618
     28 C           0.7192   -0.9158    7.5485 C.2     1  LIG1        0.1946
     29 C           1.9758    1.2778    7.1791 C.ar    1  LIG1       -0.0462
     30 H           1.8776    1.2116    6.2566 H       1  LIG1        0.0626
     31 C           2.9692    6.9788   10.6584 C.ar    1  LIG1       -0.0553
     32 H           3.4457    7.7013   10.9996 H       1  LIG1        0.0621
     33 C           7.4178    2.6653   11.0857 C.ar    1  LIG1       -0.0613
     34 H           8.2794    2.4935   11.3909 H       1  LIG1        0.0618
     35 C           2.3752   -1.4279    5.7084 C.ar    1  LIG1       -0.0509
     36 H           3.0156   -0.9063    6.1369 H       1  LIG1        0.0625
     37 C           2.6992   -2.0896    4.5412 C.ar    1  LIG1       -0.0611
     38 H           3.5591   -2.0190    4.1948 H       1  LIG1        0.0618
     39 C           0.1456   -2.3297    5.5891 C.ar    1  LIG1       -0.0509
     40 H          -0.7061   -2.4281    5.9499 H       1  LIG1        0.0625
     41 C           0.9195    6.0615    9.8634 C.ar    1  LIG1       -0.0600
     42 H           0.0177    6.1573    9.6583 H       1  LIG1        0.0618
     43 C           6.3522    6.3712    7.1215 C.ar    1  LIG1       -0.0614
     44 H           6.3420    5.9185    6.3100 H       1  LIG1        0.0618
     45 C           6.3713    7.7026    9.5684 C.ar    1  LIG1        0.0174
     46 C           1.6198    7.1318   10.3845 C.ar    1  LIG1       -0.0613
     47 H           1.1927    7.9418   10.5476 H       1  LIG1        0.0618
     48 C           6.0627    7.5288   12.2779 C.ar    1  LIG1        0.0174
     49 C           0.4686   -2.9667    4.4162 C.ar    1  LIG1       -0.0611
     50 H          -0.1759   -3.4715    3.9742 H       1  LIG1        0.0618
     51 C           6.9135    8.2970    8.4110 C.ar    1  LIG1       -0.0477
     52 H           7.2898    9.1459    8.4643 H       1  LIG1        0.0629
     53 C           6.8951    7.6400    7.2030 C.ar    1  LIG1       -0.0607
     54 H           7.2463    8.0467    6.4444 H       1  LIG1        0.0618
     55 C           1.7510   -2.8663    3.8810 C.ar    1  LIG1       -0.0617
     56 H           1.9704   -3.3089    3.0928 H       1  LIG1        0.0618
     57 C           5.0534    5.5430   13.1783 C.ar    1  LIG1       -0.0560
     58 H           4.6276    4.7254   13.0537 H       1  LIG1        0.0621
     59 C           6.3267    7.9623   13.5927 C.ar    1  LIG1       -0.0477
     60 H           6.7628    8.7707   13.7353 H       1  LIG1        0.0629
     61 C           5.2870    5.9893   14.4565 C.ar    1  LIG1       -0.0614
     62 H           5.0062    5.4839   15.1857 H       1  LIG1        0.0618
     63 C           5.9448    7.1992   14.6574 C.ar    1  LIG1       -0.0607
     64 H           6.1258    7.4889   15.5219 H       1  LIG1        0.0618
     65 N           3.5354    3.4623    9.6999 N.pl3   1  LIG1       -0.2534
@<TRIPOS>BOND
     1    56    55    1
     2    55    49   ar
     3    55    37   ar
     4    50    49    1
     5    38    37    1
     6    49    39   ar
     7    37    35   ar
     8    39    40    1
     9    39    18   ar
    10    35    36    1
    11    35    18   ar
    12    18    28    1
    13    30    29    1
    14    44    43    1
    15    54    53    1
    16    43    53   ar
    17    43    14   ar
    18    29    16   ar
    19    29    11   ar
    20    53    51   ar
    21    17    16    1
    22    28    11    1
    23    28     2    2
    24    16    10   ar
    25    11    12   ar
    26    15    14    1
    27    14     5   ar
    28    51    52    1
    29    51    45   ar
    30    10    65    1
    31    10     3   ar
    32    25    24    1
    33    12     3   ar
    34    12    13    1
    35     5    45   ar
    36     5     7    1
    37    45     1    1
    38    24    41   ar
    39    24     8   ar
    40    42    41    1
    41    65     8    1
    42    65     9    1
    43    20    19    1
    44    41    46   ar
    45     8     4   ar
    46    19     9   ar
    47    19    26   ar
    48     9     6   ar
    49    46    47    1
    50    46    31   ar
    51     4    31   ar
    52     4     7    1
    53    27    26    1
    54    26    33   ar
    55    31    32    1
    56     6     7    1
    57     6    21   ar
    58     7    23    1
    59     1    48    1
    60    33    21   ar
    61    33    34    1
    62    21    22    1
    63    23    48   ar
    64    23    57   ar
    65    48    59   ar
    66    58    57    1
    67    57    61   ar
    68    59    60    1
    69    59    63   ar
    70    61    63   ar
    71    61    62    1
    72    63    64    1
