@<TRIPOS>MOLECULE
3,4,5-trihydroxybenzoic acid:isonicotinic acid hydrazide dihydrate
 76 74 0 0 0
SMALL
GASTEIGER

@<TRIPOS>ATOM
      1 C           1.4112    4.5454   -2.2574 C.2     1  LIG1        0.3868
      2 C           1.7182    4.6153   -0.7984 C.ar    1  LIG1        0.0703
      3 C           1.7623    3.4511   -0.0272 C.ar    1  LIG1       -0.0022
      4 H           1.6172    2.6055   -0.4357 H       1  LIG1        0.0663
      5 C           2.0193    3.5286    1.3351 C.ar    1  LIG1        0.1628
      6 C           2.2475    4.7664    1.9464 C.ar    1  LIG1        0.2006
      7 C           2.1915    5.9195    1.1726 C.ar    1  LIG1        0.1628
      8 C           1.9330    5.8491   -0.1853 C.ar    1  LIG1       -0.0022
      9 H           1.9021    6.6454   -0.7027 H       1  LIG1        0.0663
     10 C          -0.9405   10.8923    2.5753 C.2     2  LIG2        0.2418
     11 C           0.3654   11.0669    1.8314 C.3     2  LIG2        0.1079
     12 C           1.0555    9.9186    1.4791 C.2     2  LIG2       -0.0500
     13 H           0.7036    9.0643    1.7014 H       2  LIG2        0.0598
     14 C           2.2507   10.0182    0.8081 C.2     2  LIG2       -0.0094
     15 H           2.7186    9.2285    0.5639 H       2  LIG2        0.0778
     16 C           2.1174   12.3333    0.8274 C.2     2  LIG2       -0.0094
     17 H           2.4971   13.1739    0.5973 H       2  LIG2        0.0778
     18 C           0.9098   12.3032    1.4985 C.2     2  LIG2       -0.0500
     19 H           0.4616   13.1087    1.7268 H       2  LIG2        0.0598
     20 C           3.7957   10.2106    7.7198 C.2     3  LIG3        0.3868
     21 C           5.0906   10.2677    6.9758 C.ar    3  LIG3        0.0703
     22 C           5.7410    9.0978    6.5937 C.ar    3  LIG3       -0.0022
     23 H           5.3577    8.2550    6.8037 H       3  LIG3        0.0663
     24 C           6.9435    9.1554    5.9104 C.ar    3  LIG3        0.1628
     25 C           7.5146   10.3808    5.5854 C.ar    3  LIG3        0.2006
     26 C           6.8612   11.5498    5.9613 C.ar    3  LIG3        0.1628
     27 C           5.6700   11.4966    6.6614 C.ar    3  LIG3       -0.0022
     28 H           5.2435   12.3016    6.9302 H       3  LIG3        0.0663
     29 C           3.5114    5.2734    8.0123 C.2     4  LIG4        0.2418
     30 C           3.7733    5.4181    9.4870 C.3     4  LIG4        0.1079
     31 C           3.8546    4.2536   10.2406 C.2     4  LIG4       -0.0500
     32 H           3.7073    3.4104    9.8296 H       4  LIG4        0.0598
     33 C           4.1503    4.3249   11.5880 C.2     4  LIG4       -0.0094
     34 H           4.1987    3.5318   12.1071 H       4  LIG4        0.0778
     35 C           4.2802    6.6497   11.4624 C.2     4  LIG4       -0.0094
     36 H           4.4339    7.4772   11.9007 H       4  LIG4        0.0778
     37 C           3.9709    6.6422   10.1282 C.2     4  LIG4       -0.0500
     38 H           3.8933    7.4569    9.6460 H       4  LIG4        0.0598
     39 N           2.7638   11.2131    0.4945 N.pl3   2  LIG2       -0.3269
     40 N          -1.5725   11.9972    2.9442 N.am    2  LIG2       -0.2526
     41 N          -2.7913   11.9428    3.6583 N.3     2  LIG2       -0.2544
     42 N           4.3685    5.5128   12.1589 N.pl3   4  LIG4       -0.3269
     43 N           3.4338    6.3860    7.2824 N.am    4  LIG4       -0.2526
     44 N           3.3188    6.3088    5.8700 N.3     4  LIG4       -0.2544
     45 O           1.1321    3.4722   -2.8019 O.co2   1  LIG1       -0.2406
     46 O           1.4342    5.6558   -2.8994 O.co2   1  LIG1       -0.2406
     47 O           3.2945    8.4346    4.0105 O.3     5  HOH5       -0.4105
     48 O           2.3872    7.1550    1.7101 O.3     1  LIG1       -0.5032
     49 O           2.8315    2.9513    4.9688 O.3     6  HOH6       -0.4105
     50 O           2.5190    4.9170    3.2692 O.3     1  LIG1       -0.5009
     51 O           2.0514    2.4414    2.1642 O.3     1  LIG1       -0.5032
     52 O          -1.3730    9.7597    2.8046 O.2     2  LIG2       -0.2732
     53 O           3.2910    9.1282    8.0474 O.co2   3  LIG3       -0.2406
     54 O           3.2515   11.3534    8.0132 O.co2   3  LIG3       -0.2406
     55 O           7.6299    8.0547    5.4923 O.3     3  LIG3       -0.5032
     56 O           8.6836   10.4962    4.8933 O.3     3  LIG3       -0.5009
     57 O           7.3490   12.7827    5.6645 O.3     3  LIG3       -0.5032
     58 O           3.4222    4.1446    7.5151 O.2     4  LIG4       -0.2732
     59 H           3.8412   11.2855   -0.0878 H       2  LIG2        0.1510
     60 H           4.0462    8.7901    3.7769 H       0  HOH0        0.2052
     61 H           3.0479    3.2822    5.6478 H       0  HOH0        0.2052
     62 H          -1.2554   12.8187    2.8019 H       2  LIG2        0.1687
     63 H           3.4289    7.9133    4.5762 H       0  HOH0        0.2052
     64 H           2.2376    2.3830    5.0681 H       0  HOH0        0.2052
     65 H          -2.6139   11.6879    4.5059 H       2  LIG2        0.1405
     66 H           2.6492    7.1265    2.4945 H       1  LIG1        0.2923
     67 H          -3.3614   11.3034    3.3201 H       2  LIG2        0.1405
     68 H           4.5413    5.5753   13.1928 H       4  LIG4        0.1510
     69 H           2.5267    4.2264    3.6188 H       1  LIG1        0.2924
     70 H           3.4296    7.2119    7.6504 H       4  LIG4        0.1687
     71 H           2.0108    1.7310    1.7040 H       1  LIG1        0.2923
     72 H           3.8643    5.7551    5.5599 H       4  LIG4        0.1405
     73 H           2.4865    5.9282    5.7005 H       4  LIG4        0.1405
     74 H           7.2357    7.3288    5.7971 H       3  LIG3        0.2923
     75 H           8.9705    9.6781    4.6728 H       3  LIG3        0.2924
     76 H           8.0358   12.7467    5.1910 H       3  LIG3        0.2923
@<TRIPOS>BOND
     1    46     1   ar
     2    45     1   ar
     3     1     2    1
     4     2     8   ar
     5     2     3   ar
     6     9     8    1
     7     4     3    1
     8     8     7   ar
     9    59    39    1
    10     3     5   ar
    11    39    14    1
    12    39    16    1
    13    15    14    1
    14    17    16    1
    15    14    12    2
    16    16    18    2
    17     7    48    1
    18     7     6   ar
    19     5     6   ar
    20     5    51    1
    21    12    13    1
    22    12    11    1
    23    18    19    1
    24    18    11    1
    25    71    51    1
    26    48    66    1
    27    11    10    1
    28     6    50    1
    29    10    52    2
    30    10    40   am
    31    62    40    1
    32    40    41    1
    33    50    69    1
    34    67    41    1
    35    41    65    1
    36    60    47    1
    37    47    63    1
    38    75    56    1
    39    56    25    1
    40    49    64    1
    41    49    61    1
    42    76    57    1
    43    55    74    1
    44    55    24    1
    45    72    44    1
    46    25    24   ar
    47    25    26   ar
    48    57    26    1
    49    73    44    1
    50    44    43    1
    51    24    22   ar
    52    26    27   ar
    53    22    23    1
    54    22    21   ar
    55    27    28    1
    56    27    21   ar
    57    21    20    1
    58    43    70    1
    59    43    29   am
    60    58    29    2
    61    20    54   ar
    62    20    53   ar
    63    29    30    1
    64    30    37    1
    65    30    31    1
    66    38    37    1
    67    32    31    1
    68    37    35    2
    69    31    33    2
    70    35    36    1
    71    35    42    1
    72    33    34    1
    73    33    42    1
    74    42    68    1
