@<TRIPOS>MOLECULE
C23 H24 O4
 51 53 0 0 0
SMALL
GASTEIGER

@<TRIPOS>ATOM
      1 O           3.9537    2.5772    0.9294 O.3     1  LIG1       -0.4671
      2 O           3.1735    4.6722    1.0748 O.2     1  LIG1       -0.2496
      3 O           5.1619    1.7321    3.7907 O.3     1  LIG1       -0.4671
      4 O           5.9484    3.7549    3.2509 O.2     1  LIG1       -0.2496
      5 C           1.0828    2.9864    9.8432 C.ar    1  LIG1       -0.0617
      6 H           0.7686    2.9232   10.7161 H       1  LIG1        0.0618
      7 C           1.7796    1.9317    9.2753 C.ar    1  LIG1       -0.0612
      8 H           1.9336    1.1589    9.7693 H       1  LIG1        0.0618
      9 C           2.2504    2.0239    7.9672 C.ar    1  LIG1       -0.0543
     10 H           2.7238    1.3137    7.5977 H       1  LIG1        0.0624
     11 C           2.0195    3.1695    7.2058 C.ar    1  LIG1       -0.0219
     12 C           1.3189    4.2278    7.7917 C.ar    1  LIG1       -0.0543
     13 H           1.1598    5.0012    7.3004 H       1  LIG1        0.0624
     14 C           0.8564    4.1381    9.1020 C.ar    1  LIG1       -0.0612
     15 H           0.3951    4.8506    9.4811 H       1  LIG1        0.0618
     16 C           2.4808    3.2647    5.7866 C.2     1  LIG1       -0.0406
     17 C           2.2827    2.2570    4.9420 C.2     1  LIG1       -0.0710
     18 H           1.9513    1.4649    5.2989 H       1  LIG1        0.0581
     19 C           2.5467    2.2829    3.4584 C.3     1  LIG1        0.0289
     20 H           2.9444    1.4221    3.2107 H       1  LIG1        0.0408
     21 C           3.5737    3.4008    3.1028 C.3     1  LIG1        0.1743
     22 C           3.2504    4.7049    3.8382 C.3     1  LIG1       -0.0194
     23 H           3.9440    5.3530    3.6381 H       1  LIG1        0.0287
     24 H           2.4143    5.0554    3.4933 H       1  LIG1        0.0287
     25 C           3.1322    4.5694    5.3679 C.3     1  LIG1       -0.0169
     26 H           2.5425    5.2904    5.6718 H       1  LIG1        0.0347
     27 C           4.4654    4.7434    6.1096 C.3     1  LIG1       -0.0583
     28 H           4.3115    4.7043    7.0567 H       1  LIG1        0.0236
     29 H           5.0677    4.0399    5.8561 H       1  LIG1        0.0236
     30 H           4.8507    5.5921    5.8802 H       1  LIG1        0.0236
     31 C           1.2065    2.4070    2.7242 C.ar    1  LIG1       -0.0389
     32 C           0.2422    3.3358    3.1118 C.ar    1  LIG1       -0.0580
     33 H           0.4232    3.9182    3.8138 H       1  LIG1        0.0620
     34 C          -0.9838    3.4038    2.4657 C.ar    1  LIG1       -0.0615
     35 H          -1.6114    4.0381    2.7280 H       1  LIG1        0.0618
     36 C          -1.2754    2.5310    1.4319 C.ar    1  LIG1       -0.0617
     37 H          -2.1002    2.5714    1.0043 H       1  LIG1        0.0618
     38 C          -0.3311    1.5962    1.0377 C.ar    1  LIG1       -0.0615
     39 H          -0.5225    1.0107    0.3412 H       1  LIG1        0.0618
     40 C           0.9063    1.5293    1.6813 C.ar    1  LIG1       -0.0580
     41 H           1.5336    0.8969    1.4138 H       1  LIG1        0.0620
     42 C           3.8925    2.6581   -0.5186 C.3     1  LIG1        0.0817
     43 H           4.0730    1.7938   -0.8954 H       1  LIG1        0.0661
     44 H           3.0174    2.9454   -0.7863 H       1  LIG1        0.0661
     45 H           4.5468    3.2870   -0.8318 H       1  LIG1        0.0661
     46 C           3.5340    3.6544    1.5934 C.2     1  LIG1        0.3249
     47 C           5.0269    2.9906    3.3945 C.2     1  LIG1        0.3249
     48 C           6.5132    1.2884    4.0598 C.3     1  LIG1        0.0817
     49 H           7.0944    1.5890    3.3567 H       1  LIG1        0.0661
     50 H           6.8083    1.6528    4.8979 H       1  LIG1        0.0661
     51 H           6.5330    0.3295    4.1024 H       1  LIG1        0.0661
@<TRIPOS>BOND
     1    43    42    1
     2    45    42    1
     3    44    42    1
     4    42     1    1
     5    39    38    1
     6     1    46    1
     7    37    36    1
     8    38    36   ar
     9    38    40   ar
    10     2    46    2
    11    41    40    1
    12    36    34   ar
    13    46    21    1
    14    40    31   ar
    15    34    35    1
    16    34    32   ar
    17    31    32   ar
    18    31    19    1
    19    21    47    1
    20    21    19    1
    21    21    22    1
    22    32    33    1
    23    20    19    1
    24     4    47    2
    25    49    48    1
    26    47     3    1
    27    19    17    1
    28    24    22    1
    29    23    22    1
    30     3    48    1
    31    22    25    1
    32    48    51    1
    33    48    50    1
    34    17    18    1
    35    17    16    2
    36    25    26    1
    37    25    16    1
    38    25    27    1
    39    16    11    1
    40    29    27    1
    41    30    27    1
    42    27    28    1
    43    11    12   ar
    44    11     9   ar
    45    13    12    1
    46    10     9    1
    47    12    14   ar
    48     9     7   ar
    49    14    15    1
    50    14     5   ar
    51     7     8    1
    52     7     5   ar
    53     5     6    1
