@<TRIPOS>MOLECULE
C19 H14 O3
 72 78 0 0 0
SMALL
GASTEIGER

@<TRIPOS>ATOM
      1 O           2.3240    8.4926    8.9533 O.2     1  LIG1       -0.2449
      2 O           1.5176    7.0352   10.4511 O.3     1  LIG1       -0.4563
      3 O          -4.8995    8.1605   10.6721 O.3     1  LIG1       -0.4945
      4 O           0.9573    5.8813   15.2809 O.2     2  LIG2       -0.2449
      5 O           2.8601    5.8107   14.0991 O.3     2  LIG2       -0.4563
      6 O           1.7455    1.7699    9.1298 O.3     2  LIG2       -0.4945
      7 C           1.3820    8.0453    9.5465 C.2     1  LIG1        0.3399
      8 C          -0.0398    8.4107    9.4818 C.ar    1  LIG1        0.0666
      9 C          -0.6529    9.3496    8.7083 C.ar    1  LIG1       -0.0395
     10 C          -2.0496    9.5098    8.8221 C.ar    1  LIG1       -0.0130
     11 C          -2.6989   10.5032    8.0423 C.ar    1  LIG1       -0.0538
     12 C          -4.0433   10.6702    8.1289 C.ar    1  LIG1       -0.0577
     13 C          -4.8076    9.8734    8.9929 C.ar    1  LIG1       -0.0193
     14 C          -4.2137    8.9198    9.7847 C.ar    1  LIG1        0.1284
     15 C          -2.7977    8.6826    9.7274 C.ar    1  LIG1        0.0319
     16 C          -2.1192    7.6910   10.5264 C.ar    1  LIG1        0.0005
     17 C          -0.7509    7.6141   10.3764 C.ar    1  LIG1        0.0121
     18 C           0.2344    6.7066   11.0519 C.3     1  LIG1        0.1192
     19 C          -2.7517    6.7472   11.4972 C.ar    1  LIG1       -0.0168
     20 C          -3.6118    5.7267   11.0988 C.ar    1  LIG1       -0.0540
     21 C          -4.1507    4.8536   12.0266 C.ar    1  LIG1       -0.0612
     22 C          -3.8331    4.9732   13.3684 C.ar    1  LIG1       -0.0617
     23 C          -2.9568    5.9626   13.7752 C.ar    1  LIG1       -0.0612
     24 C          -2.4210    6.8385   12.8477 C.ar    1  LIG1       -0.0540
     25 C          -6.3174    8.2825   10.6962 C.3     1  LIG1        0.0788
     26 C           1.5739    5.4300   14.3541 C.2     2  LIG2        0.3399
     27 C           1.1741    4.4667   13.3184 C.ar    2  LIG2        0.0666
     28 C          -0.0269    3.8490   13.1169 C.ar    2  LIG2       -0.0395
     29 C          -0.1691    3.0044   11.9977 C.ar    2  LIG2       -0.0130
     30 C          -1.4175    2.3673   11.7563 C.ar    2  LIG2       -0.0538
     31 C          -1.5865    1.5772   10.6705 C.ar    2  LIG2       -0.0577
     32 C          -0.5372    1.3587    9.7662 C.ar    2  LIG2       -0.0193
     33 C           0.6902    1.9445    9.9697 C.ar    2  LIG2        0.1284
     34 C           0.9318    2.7974   11.0951 C.ar    2  LIG2        0.0319
     35 C           2.1856    3.4595   11.3463 C.ar    2  LIG2        0.0005
     36 C           2.2485    4.2720   12.4483 C.ar    2  LIG2        0.0121
     37 C           3.3928    5.1060   12.9477 C.3     2  LIG2        0.1192
     38 C           3.4199    3.3523   10.5055 C.ar    2  LIG2       -0.0168
     39 C           4.2817    2.2684   10.6369 C.ar    2  LIG2       -0.0540
     40 C           5.4514    2.2117    9.8912 C.ar    2  LIG2       -0.0612
     41 C           5.7742    3.2320    9.0225 C.ar    2  LIG2       -0.0617
     42 C           4.9384    4.3219    8.9014 C.ar    2  LIG2       -0.0612
     43 C           3.7690    4.3885    9.6480 C.ar    2  LIG2       -0.0540
     44 C           1.5995    0.8367    8.0557 C.3     2  LIG2        0.0788
     45 H          -0.1458    9.9268    8.0819 H       1  LIG1        0.0632
     46 H          -2.1572   11.0438    7.4273 H       1  LIG1        0.0624
     47 H          -4.4977   11.3480    7.6045 H       1  LIG1        0.0619
     48 H          -5.7792    9.9861    9.0558 H       1  LIG1        0.0654
     49 H           0.3069    6.8831   12.0367 H       1  LIG1        0.0749
     50 H           0.0455    5.7520   10.8919 H       1  LIG1        0.0749
     51 H          -3.8434    5.6537   10.1591 H       1  LIG1        0.0624
     52 H          -4.7752    4.1748   11.7078 H       1  LIG1        0.0618
     53 H          -4.2012    4.3495   14.0372 H       1  LIG1        0.0618
     54 H          -2.7225    6.0297   14.6998 H       1  LIG1        0.0618
     55 H          -1.8195    7.5274   13.1479 H       1  LIG1        0.0624
     56 H          -6.5873    7.6662   11.3900 H       1  LIG1        0.0660
     57 H          -6.6049    9.2092   10.9590 H       1  LIG1        0.0660
     58 H          -6.6962    8.0828    9.8382 H       1  LIG1        0.0660
     59 H          -0.7673    3.9938   13.7226 H       2  LIG2        0.0632
     60 H          -2.1264    2.5258   12.4182 H       2  LIG2        0.0624
     61 H          -2.4417    1.1560   10.5151 H       2  LIG2        0.0619
     62 H          -0.6658    0.8346    8.9984 H       2  LIG2        0.0654
     63 H           4.1553    4.5710   13.2644 H       2  LIG2        0.0749
     64 H           3.6934    5.8051   12.2937 H       2  LIG2        0.0749
     65 H           4.0556    1.5601   11.2160 H       2  LIG2        0.0624
     66 H           6.0245    1.4540   10.0186 H       2  LIG2        0.0618
     67 H           6.5905    3.1592    8.5162 H       2  LIG2        0.0618
     68 H           5.1432    5.0500    8.2895 H       2  LIG2        0.0618
     69 H           3.1830    5.1592    9.5699 H       2  LIG2        0.0624
     70 H           2.4907    0.7488    7.6317 H       2  LIG2        0.0660
     71 H           1.3092   -0.0686    8.4172 H       2  LIG2        0.0660
     72 H           0.9482    1.1857    7.4002 H       2  LIG2        0.0660
@<TRIPOS>BOND
     1    72    44    1
     2    46    11    1
     3    47    12    1
     4    70    44    1
     5    11    12   ar
     6    11    10   ar
     7    44    71    1
     8    44     6    1
     9    45     9    1
    10    12    13   ar
    11    68    42    1
    12    67    41    1
    13     9    10   ar
    14     9     8   ar
    15    10    15   ar
    16    42    41   ar
    17    42    43   ar
    18     1     7    2
    19    13    48    1
    20    13    14   ar
    21    62    32    1
    22    41    40   ar
    23     6    33    1
    24     8     7    1
    25     8    17   ar
    26     7     2    1
    27    69    43    1
    28    43    38   ar
    29    15    14   ar
    30    15    16   ar
    31    32    33   ar
    32    32    31   ar
    33    14     3    1
    34    58    25    1
    35    40    66    1
    36    40    39   ar
    37    33    34   ar
    38    51    20    1
    39    17    16   ar
    40    17    18    1
    41     2    18    1
    42    38    39   ar
    43    38    35    1
    44    61    31    1
    45    16    19    1
    46    39    65    1
    47    31    30   ar
    48     3    25    1
    49    25    57    1
    50    25    56    1
    51    50    18    1
    52    18    49    1
    53    34    35   ar
    54    34    29   ar
    55    20    19   ar
    56    20    21   ar
    57    35    36   ar
    58    19    24   ar
    59    52    21    1
    60    30    29   ar
    61    30    60    1
    62    29    28   ar
    63    21    22   ar
    64    64    37    1
    65    36    37    1
    66    36    27   ar
    67    24    55    1
    68    24    23   ar
    69    37    63    1
    70    37     5    1
    71    28    27   ar
    72    28    59    1
    73    27    26    1
    74    22    23   ar
    75    22    53    1
    76    23    54    1
    77     5    26    1
    78    26     4    2
