@<TRIPOS>MOLECULE
4518276.cif
 19 19 0 0 0
SMALL
GASTEIGER

@<TRIPOS>ATOM
      1 C           3.3406    2.5550   10.5637 C.ar    1  LIG1       -0.0557
      2 H           3.6289    2.9389   11.3833 H       1  LIG1        0.0621
      3 C           4.1575    1.6450    9.9097 C.ar    1  LIG1       -0.0431
      4 H           4.9990    1.4004   10.2765 H       1  LIG1        0.0632
      5 C           3.7233    1.0971    8.7093 C.ar    1  LIG1        0.0410
      6 C           2.4937    1.4209    8.1676 C.ar    1  LIG1       -0.0431
      7 H           2.2062    1.0281    7.3516 H       1  LIG1        0.0632
      8 C           1.6849    2.3304    8.8378 C.ar    1  LIG1       -0.0557
      9 H           0.8365    2.5574    8.4763 H       1  LIG1        0.0621
     10 C           2.1006    2.9143   10.0332 C.ar    1  LIG1       -0.0302
     11 C           1.2327    3.9221   10.7309 C.3     1  LIG1        0.0366
     12 H           1.7833    4.7008   10.9951 H       1  LIG1        0.0511
     13 H           0.5339    4.2402   10.1058 H       1  LIG1        0.0511
     14 C           0.0558    4.1410   12.8366 C.2     1  LIG1        0.2002
     15 H          -0.3319    3.7224   13.5961 H       1  LIG1        0.1251
     16 CL          4.7546   -0.0162    7.8481 Cl      1  LIG1       -0.0835
     17 N           0.5962    3.3564   11.9175 N.am    1  LIG1       -0.3138
     18 H           0.5718    2.4832   12.0228 H       1  LIG1        0.1488
     19 O           0.0159    5.3729   12.7851 O.2     1  LIG1       -0.2795
@<TRIPOS>BOND
     1     7     6    1
     2    16     5    1
     3     6     5   ar
     4     6     8   ar
     5     9     8    1
     6     5     3   ar
     7     8    10   ar
     8     3     4    1
     9     3     1   ar
    10    10     1   ar
    11    10    11    1
    12    13    11    1
    13     1     2    1
    14    11    12    1
    15    11    17    1
    16    17    18    1
    17    17    14   am
    18    19    14    2
    19    14    15    1
