@<TRIPOS>MOLECULE
C14 H11 Cl2 N S
 29 30 0 0 0
SMALL
GASTEIGER

@<TRIPOS>ATOM
      1 S           5.5106    2.4137    2.1053 S.3     1  LIG1       -0.0384
      2 CL          1.9441    0.7038    1.2838 Cl      1  LIG1       -0.1045
      3 CL          0.9101    3.3833    0.8302 Cl      1  LIG1       -0.1045
      4 C           5.4535    1.7230    6.7171 C.ar    1  LIG1       -0.0176
      5 C           5.0786    2.9558    7.3325 C.ar    1  LIG1       -0.0179
      6 C           5.0818    1.4922    5.3723 C.ar    1  LIG1       -0.0498
      7 H           5.3222    0.6720    4.9577 H       1  LIG1        0.0627
      8 C           4.3783    2.4328    4.6486 C.ar    1  LIG1       -0.0328
      9 C           6.1905    0.7807    7.4784 C.ar    1  LIG1       -0.0540
     10 H           6.4432   -0.0446    7.0813 H       1  LIG1        0.0624
     11 C           6.1699    2.2592    9.3900 C.ar    1  LIG1       -0.0612
     12 H           6.4168    2.4310   10.2919 H       1  LIG1        0.0618
     13 C           5.4505    3.1896    8.6828 C.ar    1  LIG1       -0.0540
     14 H           5.1971    4.0027    9.1031 H       1  LIG1        0.0624
     15 C           4.0069    3.6530    5.2696 C.ar    1  LIG1       -0.0569
     16 H           3.5188    4.3032    4.7778 H       1  LIG1        0.0621
     17 C           4.3470    3.9017    6.5726 C.ar    1  LIG1       -0.0537
     18 H           4.0881    4.7223    6.9751 H       1  LIG1        0.0624
     19 C           6.5439    1.0383    8.7676 C.ar    1  LIG1       -0.0612
     20 H           7.0447    0.3956    9.2560 H       1  LIG1        0.0618
     21 N           5.4754    5.2591    2.1936 N.1     1  LIG1       -0.1838
     22 C           4.0284    2.1393    3.2125 C.3     1  LIG1        0.0466
     23 H           3.8144    1.1637    3.1652 H       1  LIG1        0.0472
     24 C           2.7972    2.8807    2.6896 C.3     1  LIG1       -0.0060
     25 H           2.0516    2.7475    3.3277 H       1  LIG1        0.0305
     26 H           2.9979    3.8498    2.6621 H       1  LIG1        0.0305
     27 C           2.3417    2.4387    1.3115 C.3     1  LIG1        0.1092
     28 H           3.0779    2.6121    0.6566 H       1  LIG1        0.0634
     29 C           5.5029    4.1063    2.1645 C.1     1  LIG1        0.1335
@<TRIPOS>BOND
     1    28    27    1
     2     3    27    1
     3     2    27    1
     4    27    24    1
     5     1    29    1
     6     1    22    1
     7    29    21    3
     8    26    24    1
     9    24    22    1
    10    24    25    1
    11    23    22    1
    12    22     8    1
    13     8    15   ar
    14     8     6   ar
    15    16    15    1
    16     7     6    1
    17    15    17   ar
    18     6     4   ar
    19    17    18    1
    20    17     5   ar
    21     4     5   ar
    22     4     9   ar
    23    10     9    1
    24     5    13   ar
    25     9    19   ar
    26    13    14    1
    27    13    11   ar
    28    19    20    1
    29    19    11   ar
    30    11    12    1
