@<TRIPOS>MOLECULE
?
 59 63 0 0 0
SMALL
GASTEIGER

@<TRIPOS>ATOM
      1 N           2.4388    5.4874    9.1422 N.ar    1  LIG1       -0.1641
      2 N           3.6834    4.9875   11.1124 N.ar    1  LIG1       -0.1832
      3 N           4.6020    6.4385    9.4511 N.ar    1  LIG1       -0.1604
      4 N           5.7528    5.9847   11.3886 N.pl3   1  LIG1       -0.2383
      5 N           8.0904    8.7285    4.4689 N.ar    1  LIG1       -0.2532
      6 N          11.0111   10.1924    5.9883 N.ar    1  LIG1       -0.2532
      7 O           3.2998    6.8589    7.6131 O.3     1  LIG1       -0.4620
      8 CL          1.3694    3.8753   10.8433 Cl      1  LIG1       -0.0408
      9 C           2.6442    4.9043   10.2979 C.ar    1  LIG1        0.2300
     10 C           3.4795    6.2496    8.7763 C.ar    1  LIG1        0.3236
     11 C           4.6474    5.7936   10.6218 C.ar    1  LIG1        0.2336
     12 C           5.9430    5.3225   12.6511 C.ar    1  LIG1        0.0415
     13 C           6.0889    3.9563   12.7247 C.ar    1  LIG1       -0.0399
     14 C           6.3626    3.3674   13.9498 C.ar    1  LIG1       -0.0600
     15 C           6.4945    4.1308   15.0783 C.ar    1  LIG1       -0.0616
     16 C           6.3364    5.4858   15.0074 C.ar    1  LIG1       -0.0600
     17 C           6.0582    6.0839   13.7951 C.ar    1  LIG1       -0.0399
     18 C           6.7608    6.9454   11.0111 C.ar    1  LIG1        0.0415
     19 C           6.4742    8.2875   11.0546 C.ar    1  LIG1       -0.0399
     20 C           7.4655    9.2083   10.7805 C.ar    1  LIG1       -0.0600
     21 C           8.7288    8.7785   10.4708 C.ar    1  LIG1       -0.0616
     22 C           9.0134    7.4487   10.4160 C.ar    1  LIG1       -0.0600
     23 C           8.0187    6.5116   10.6852 C.ar    1  LIG1       -0.0399
     24 C           4.3772    7.7122    7.1132 C.3     1  LIG1        0.0967
     25 C           5.4583    6.8815    6.4752 C.3     1  LIG1        0.0082
     26 C           6.6605    7.7307    6.1292 C.ar    1  LIG1       -0.0260
     27 C           6.9892    8.0677    4.8301 C.ar    1  LIG1        0.0316
     28 C           8.6516    8.8837    6.7698 C.ar    1  LIG1       -0.0339
     29 C           8.9317    9.1138    5.4407 C.ar    1  LIG1        0.0891
     30 C           7.5237    8.1893    7.1139 C.ar    1  LIG1       -0.0550
     31 C          10.1919    9.7660    5.0140 C.ar    1  LIG1        0.0891
     32 C          10.5247    9.9009    3.6805 C.ar    1  LIG1       -0.0339
     33 C          11.7157   10.4938    3.3365 C.ar    1  LIG1       -0.0553
     34 C          12.5730   10.9468    4.3117 C.ar    1  LIG1       -0.0323
     35 C          12.1557   10.7650    5.6128 C.ar    1  LIG1        0.0312
     36 C          13.8994   11.5906    4.0001 C.3     1  LIG1       -0.0383
     37 H          14.6104   10.9962    4.2496 H       1  LIG1        0.0278
     38 H          13.9803   12.4112    4.4917 H       1  LIG1        0.0278
     39 H          13.9525   11.7755    3.0597 H       1  LIG1        0.0278
     40 H           5.9845    3.4436   11.9454 H       1  LIG1        0.0636
     41 H           6.4987    2.5045   13.9986 H       1  LIG1        0.0618
     42 H           6.7022    3.7038   15.9149 H       1  LIG1        0.0618
     43 H           6.4342    6.0167   15.7388 H       1  LIG1        0.0618
     44 H           5.9251    6.9590   13.7455 H       1  LIG1        0.0636
     45 H           5.6277    8.5780   11.2520 H       1  LIG1        0.0636
     46 H           7.1958   10.1482   10.8448 H       1  LIG1        0.0618
     47 H           9.4224    9.4144   10.2773 H       1  LIG1        0.0618
     48 H           9.8855    7.0935   10.1685 H       1  LIG1        0.0618
     49 H           8.1975    5.5330   10.6075 H       1  LIG1        0.0636
     50 H           3.9692    8.2891    6.4252 H       1  LIG1        0.0701
     51 H           4.7325    8.2617    7.9098 H       1  LIG1        0.0701
     52 H           5.7403    6.1368    7.1161 H       1  LIG1        0.0347
     53 H           5.1323    6.3909    5.6608 H       1  LIG1        0.0347
     54 H           6.3798    7.7460    4.1371 H       1  LIG1        0.0832
     55 H           9.2456    9.1927    7.4390 H       1  LIG1        0.0639
     56 H           7.3351    8.0076    8.0149 H       1  LIG1        0.0621
     57 H           9.9704    9.5503    3.0463 H       1  LIG1        0.0639
     58 H          11.9552   10.5170    2.4263 H       1  LIG1        0.0621
     59 H          12.7278   11.0923    6.3127 H       1  LIG1        0.0832
@<TRIPOS>BOND
     1    58    33    1
     2    57    32    1
     3    39    36    1
     4    33    32   ar
     5    33    34   ar
     6    32    31   ar
     7    36    37    1
     8    36    34    1
     9    36    38    1
    10    54    27    1
    11    34    35   ar
    12     5    27   ar
    13     5    29   ar
    14    27    26   ar
    15    31    29    1
    16    31     6   ar
    17    29    28   ar
    18    35     6   ar
    19    35    59    1
    20    53    25    1
    21    26    25    1
    22    26    30   ar
    23    50    24    1
    24    25    24    1
    25    25    52    1
    26    28    30   ar
    27    28    55    1
    28    24     7    1
    29    24    51    1
    30    30    56    1
    31     7    10    1
    32    10     1   ar
    33    10     3   ar
    34     1     9   ar
    35     3    11   ar
    36    48    22    1
    37    47    21    1
    38     9     8    1
    39     9     2   ar
    40    22    21   ar
    41    22    23   ar
    42    21    20   ar
    43    49    23    1
    44    11     2   ar
    45    11     4    1
    46    23    18   ar
    47    20    46    1
    48    20    19   ar
    49    18    19   ar
    50    18     4    1
    51    19    45    1
    52     4    12    1
    53    40    13    1
    54    12    13   ar
    55    12    17   ar
    56    13    14   ar
    57    44    17    1
    58    17    16   ar
    59    14    41    1
    60    14    15   ar
    61    16    15   ar
    62    16    43    1
    63    15    42    1
