@<TRIPOS>MOLECULE
?
 120 124 0 0 0
SMALL
GASTEIGER

@<TRIPOS>ATOM
      1 C           5.4010    9.1375    6.9964 C.3     1  LIG1        0.0000
      2 P           5.5199   10.9455    7.3069 P.3     1  LIG1        0.0000
      3 O           5.7630   11.3383    8.6993 O.2     1  LIG1        0.0000
      4 O           4.1634   11.4764    6.7099 O.3     1  LIG1        0.0000
      5 C           3.3723   12.5032    7.3568 C.3     1  LIG1        0.0000
      6 H           3.3767   12.3546    8.3146 H       1  LIG1        0.0000
      7 H           2.4545   12.4413    7.0487 H       1  LIG1        0.0000
      8 C           3.8920   13.8609    7.0705 C.3     1  LIG1        0.0000
      9 H           4.7174   13.9930    7.5435 H       1  LIG1        0.0000
     10 H           3.2506   14.5161    7.3576 H       1  LIG1        0.0000
     11 H           4.0450   13.9533    6.1286 H       1  LIG1        0.0000
     12 O           6.5578   11.4305    6.2393 O.3     1  LIG1        0.0000
     13 C           7.7481   12.0828    6.4307 C.3     1  LIG1        0.0000
     14 H           8.3039   11.5656    7.0350 H       1  LIG1        0.0000
     15 H           7.5788   12.9439    6.8436 H       1  LIG1        0.0000
     16 C           8.4689   12.2845    5.1536 C.3     1  LIG1        0.0000
     17 H           8.0357   12.9762    4.6481 H       1  LIG1        0.0000
     18 H           8.4614   11.4671    4.6494 H       1  LIG1        0.0000
     19 H           9.3751   12.5398    5.3357 H       1  LIG1        0.0000
     20 C           4.5402    8.4878    8.1375 C.3     1  LIG1        0.0000
     21 H           4.4029    7.5556    7.9099 H       1  LIG1        0.0000
     22 H           5.0655    8.5092    8.9530 H       1  LIG1        0.0000
     23 C           3.1843    9.0971    8.4420 C.ar    1  LIG1        0.0000
     24 C           2.9645    9.6934    9.6851 C.ar    1  LIG1        0.0000
     25 H           3.6627    9.7376   10.2982 H       1  LIG1        0.0000
     26 C           1.7304   10.2192   10.0261 C.ar    1  LIG1        0.0000
     27 H           1.6016   10.5884   10.8696 H       1  LIG1        0.0000
     28 C           0.6773   10.1976    9.1113 C.ar    1  LIG1        0.0000
     29 C           0.8838    9.6120    7.8651 C.ar    1  LIG1        0.0000
     30 H           0.1951    9.5981    7.2400 H       1  LIG1        0.0000
     31 C           2.1144    9.0479    7.5530 C.ar    1  LIG1        0.0000
     32 H           2.2264    8.6283    6.7315 H       1  LIG1        0.0000
     33 P          -0.8849   10.9932    9.5788 P.3     1  LIG1        1.0000
     34 B          -1.2763   10.7625   11.4297 B       1  LIG1        0.0000
     35 H          -0.4419   11.1630   11.9811 H       1  LIG1        0.0000
     36 H          -2.2326   11.2981   11.6256 H       1  LIG1        0.0000
     37 H          -1.4230    9.6377   11.5381 H       1  LIG1        0.0000
     38 C          -0.7224   12.7234    9.0598 C.ar    1  LIG1        0.0000
     39 C          -0.3725   13.0474    7.7519 C.ar    1  LIG1        0.0000
     40 H          -0.2167   12.3708    7.1334 H       1  LIG1        0.0000
     41 C          -0.2571   14.3708    7.3695 C.ar    1  LIG1        0.0000
     42 H          -0.0159   14.5852    6.4977 H       1  LIG1        0.0000
     43 C          -0.5026   15.3783    8.2928 C.ar    1  LIG1        0.0000
     44 H          -0.4392   16.2691    8.0316 H       1  LIG1        0.0000
     45 C          -0.8420   15.0707    9.5976 C.ar    1  LIG1        0.0000
     46 H          -0.9969   15.7504   10.2134 H       1  LIG1        0.0000
     47 C          -0.9493   13.7436    9.9824 C.ar    1  LIG1        0.0000
     48 H          -1.1729   13.5331   10.8601 H       1  LIG1        0.0000
     49 C          -2.1862   10.2829    8.5226 C.ar    1  LIG1        0.0000
     50 C          -3.1890   11.0898    8.0026 C.ar    1  LIG1        0.0000
     51 H          -3.1480   12.0123    8.1177 H       1  LIG1        0.0000
     52 C          -4.2521   10.5252    7.3120 C.ar    1  LIG1        0.0000
     53 H          -4.9323   11.0689    6.9844 H       1  LIG1        0.0000
     54 C          -4.3049    9.1621    7.1100 C.ar    1  LIG1        0.0000
     55 H          -5.0070    8.7899    6.6276 H       1  LIG1        0.0000
     56 C          -3.3158    8.3533    7.6245 C.ar    1  LIG1        0.0000
     57 H          -3.3523    7.4336    7.4902 H       1  LIG1        0.0000
     58 C          -2.2647    8.9071    8.3418 C.ar    1  LIG1        0.0000
     59 H          -1.6092    8.3550    8.7028 H       1  LIG1        0.0000
     60 P           7.0754    8.3674    7.0838 P.3     1  LIG1        0.0000
     61 O           7.8794    8.4834    5.8613 O.2     1  LIG1        0.0000
     62 O           6.8276    6.8867    7.5505 O.3     1  LIG1        0.0000
     63 C           7.1785    5.6905    6.7817 C.3     1  LIG1        0.0000
     64 H           7.5348    5.9481    5.9167 H       1  LIG1        0.0000
     65 H           6.3864    5.1502    6.6344 H       1  LIG1        0.0000
     66 C           8.1957    4.9016    7.5334 C.3     1  LIG1        0.0000
     67 H           8.9620    5.4529    7.7117 H       1  LIG1        0.0000
     68 H           8.4626    4.1422    7.0090 H       1  LIG1        0.0000
     69 H           7.8183    4.6007    8.3638 H       1  LIG1        0.0000
     70 O           7.6594    9.0569    8.3651 O.3     1  LIG1        0.0000
     71 C           8.8513    8.5348    9.0104 C.3     1  LIG1        0.0000
     72 H           9.4254    8.1140    8.3528 H       1  LIG1        0.0000
     73 H           8.6055    7.8686    9.6707 H       1  LIG1        0.0000
     74 C           9.5713    9.6654    9.6692 C.3     1  LIG1        0.0000
     75 H           9.5254   10.4430    9.1088 H       1  LIG1        0.0000
     76 H          10.4896    9.4232    9.8061 H       1  LIG1        0.0000
     77 H           9.1595    9.8567   10.5156 H       1  LIG1        0.0000
     78 C           4.8442    8.9558    5.5398 C.3     1  LIG1        0.0000
     79 H           3.9264    9.2704    5.5271 H       1  LIG1        0.0000
     80 H           5.3539    9.5319    4.9488 H       1  LIG1        0.0000
     81 C           4.8682    7.5547    4.9654 C.ar    1  LIG1        0.0000
     82 C           5.7438    7.2529    3.9211 C.ar    1  LIG1        0.0000
     83 H           6.2958    7.9185    3.5790 H       1  LIG1        0.0000
     84 C           5.8044    5.9750    3.3865 C.ar    1  LIG1        0.0000
     85 H           6.3867    5.7953    2.6849 H       1  LIG1        0.0000
     86 C           4.9981    4.9583    3.8947 C.ar    1  LIG1        0.0000
     87 C           4.0929    5.2581    4.9127 C.ar    1  LIG1        0.0000
     88 H           3.5372    4.5933    5.2523 H       1  LIG1        0.0000
     89 C           4.0209    6.5451    5.4169 C.ar    1  LIG1        0.0000
     90 H           3.3907    6.7401    6.0726 H       1  LIG1        0.0000
     91 P           5.2121    3.2832    3.2330 P.3     1  LIG1        1.0000
     92 B           5.8660    3.2853    1.4420 B       1  LIG1        0.0000
     93 H           6.8947    3.6985    1.5134 H       1  LIG1        0.0000
     94 H           5.1647    3.8865    0.9296 H       1  LIG1        0.0000
     95 H           5.8284    2.2379    1.1237 H       1  LIG1        0.0000
     96 C           6.3079    2.4101    4.3889 C.ar    1  LIG1        0.0000
     97 C           5.9506    2.2144    5.7196 C.ar    1  LIG1        0.0000
     98 H           5.1239    2.5112    6.0274 H       1  LIG1        0.0000
     99 C           6.8241    1.5792    6.5860 C.ar    1  LIG1        0.0000
    100 H           6.5796    1.4371    7.4711 H       1  LIG1        0.0000
    101 C           8.0565    1.1577    6.1368 C.ar    1  LIG1        0.0000
    102 H           8.6419    0.7376    6.7247 H       1  LIG1        0.0000
    103 C           8.4280    1.3539    4.8285 C.ar    1  LIG1        0.0000
    104 H           9.2644    1.0756    4.5360 H       1  LIG1        0.0000
    105 C           7.5496    1.9694    3.9439 C.ar    1  LIG1        0.0000
    106 H           7.7918    2.0865    3.0541 H       1  LIG1        0.0000
    107 C           3.5870    2.4911    3.3685 C.ar    1  LIG1        0.0000
    108 C           3.4531    1.1539    3.7165 C.ar    1  LIG1        0.0000
    109 H           4.2051    0.6509    3.9290 H       1  LIG1        0.0000
    110 C           2.2006    0.5682    3.7485 C.ar    1  LIG1        0.0000
    111 H           2.1137   -0.3262    3.9891 H       1  LIG1        0.0000
    112 C           1.0780    1.3056    3.4245 C.ar    1  LIG1        0.0000
    113 H           0.2365    0.9125    3.4642 H       1  LIG1        0.0000
    114 C           1.2071    2.6283    3.0430 C.ar    1  LIG1        0.0000
    115 H           0.4536    3.1195    2.8039 H       1  LIG1        0.0000
    116 C           2.4509    3.2186    3.0170 C.ar    1  LIG1        0.0000
    117 H           2.5349    4.1099    2.7629 H       1  LIG1        0.0000
    118 O           9.0416    8.5555    3.1389 O.3     2  HOH2        0.0000
    119 H           8.7399    8.5945    3.9372 H       0  HOH0        0.0000
    120 H           8.6865    9.1866    2.7588 H       0  HOH0        0.0000
@<TRIPOS>BOND
     1    94    92    1
     2    95    92    1
     3    92    93    1
     4    92    91    1
     5    85    84    1
     6   120   118    1
     7   117   116    1
     8   115   114    1
     9   116   114   ar
    10   116   107   ar
    11   114   112   ar
    12   106   105    1
    13   118   119    1
    14    91   107    1
    15    91    86    1
    16    91    96    1
    17   107   108   ar
    18    84    86   ar
    19    84    82   ar
    20   112   113    1
    21   112   110   ar
    22    83    82    1
    23   108   110   ar
    24   108   109    1
    25   110   111    1
    26    86    87   ar
    27    82    81   ar
    28   105    96   ar
    29   105   103   ar
    30    96    97   ar
    31   104   103    1
    32    17    16    1
    33    18    16    1
    34   103   101   ar
    35    87    88    1
    36    87    89   ar
    37    80    78    1
    38    81    89   ar
    39    81    78    1
    40    16    19    1
    41    16    13    1
    42    89    90    1
    43    79    78    1
    44    78     1    1
    45    97    98    1
    46    97    99   ar
    47    61    60    2
    48    64    63    1
    49    11     8    1
    50   101    99   ar
    51   101   102    1
    52    12    13    1
    53    12     2    1
    54    13    15    1
    55    13    14    1
    56    42    41    1
    57    99   100    1
    58    55    54    1
    59    65    63    1
    60     4     2    1
    61     4     5    1
    62    32    31    1
    63    63    66    1
    64    63    62    1
    65    53    52    1
    66     1    60    1
    67     1     2    1
    68     1    20    1
    69    68    66    1
    70     7     5    1
    71     8     5    1
    72     8    10    1
    73     8     9    1
    74    60    62    1
    75    60    70    1
    76    54    52   ar
    77    54    56   ar
    78    40    39    1
    79    30    29    1
    80     2     3    2
    81    52    50   ar
    82     5     6    1
    83    41    39   ar
    84    41    43   ar
    85    57    56    1
    86    66    67    1
    87    66    69    1
    88    31    29   ar
    89    31    23   ar
    90    56    58   ar
    91    39    38   ar
    92    29    28   ar
    93    21    20    1
    94    50    51    1
    95    50    49   ar
    96    44    43    1
    97    20    23    1
    98    20    22    1
    99    43    45   ar
   100    58    49   ar
   101    58    59    1
   102    72    71    1
   103    70    71    1
   104    23    24   ar
   105    49    33    1
   106    71    74    1
   107    71    73    1
   108    38    33    1
   109    38    47   ar
   110    75    74    1
   111    28    33    1
   112    28    26   ar
   113    33    34    1
   114    45    47   ar
   115    45    46    1
   116    74    76    1
   117    74    77    1
   118    24    26   ar
   119    24    25    1
   120    47    48    1
   121    26    27    1
   122    34    37    1
   123    34    36    1
   124    34    35    1
