@<TRIPOS>MOLECULE
?
 36 38 0 0 0
SMALL
GASTEIGER

@<TRIPOS>ATOM
      1 C           8.5723   11.5745   14.9736 C.2     1  LIG1        0.3171
      2 C           9.5093   12.7525   15.0365 C.3     1  LIG1        0.0763
      3 H           8.9592   13.5862   15.0970 H       1  LIG1        0.0430
      4 C          10.4109   12.6853   16.2588 C.3     1  LIG1        0.0176
      5 H           9.8813   12.4253   17.0540 H       1  LIG1        0.0393
      6 H          10.8121   13.5737   16.4302 H       1  LIG1        0.0393
      7 C          10.4121   12.8599   13.7981 C.3     1  LIG1        0.0176
      8 H          10.8906   13.7267   13.7969 H       1  LIG1        0.0393
      9 H           9.8680   12.8002   12.9721 H       1  LIG1        0.0393
     10 C           7.0277   10.5205   13.4805 C.ar    1  LIG1        0.1318
     11 C           5.9008   10.3363   14.2551 C.ar    1  LIG1       -0.0174
     12 H           5.7519   10.8658   15.0296 H       1  LIG1        0.0655
     13 C           4.9998    9.3687   13.8792 C.ar    1  LIG1       -0.0337
     14 H           4.2283    9.2196   14.4104 H       1  LIG1        0.0638
     15 C           5.1957    8.6143   12.7493 C.ar    1  LIG1        0.0726
     16 C           6.3439    8.8040   11.9805 C.ar    1  LIG1       -0.0337
     17 H           6.4903    8.2730   11.2071 H       1  LIG1        0.0638
     18 C           7.2791    9.7742   12.3484 C.ar    1  LIG1       -0.0174
     19 H           8.0651    9.9157   11.8343 H       1  LIG1        0.0655
     20 C           3.1554    6.1268   11.2859 C.ar    1  LIG1        0.0724
     21 C           2.0847    5.7504   12.1027 C.ar    1  LIG1       -0.0362
     22 H           1.9806    6.1444   12.9618 H       1  LIG1        0.0637
     23 C           1.1591    4.7937   11.6595 C.ar    1  LIG1       -0.0468
     24 H           0.4318    4.5297   12.2090 H       1  LIG1        0.0628
     25 C           1.3340    4.2436   10.4017 C.ar    1  LIG1        0.0135
     26 C           2.4032    4.6171    9.5929 C.ar    1  LIG1       -0.0468
     27 H           2.5138    4.2286    8.7326 H       1  LIG1        0.0628
     28 C           3.3005    5.5607   10.0567 C.ar    1  LIG1       -0.0362
     29 H           4.0311    5.8181    9.5083 H       1  LIG1        0.0637
     30 I          -0.0353    2.8508    9.6275 I       1  LIG1       -0.0438
     31 N           4.0189    7.5989   12.5483 N.pl3   1  LIG1       -0.1294
     32 N           4.3147    7.1693   11.5258 N.pl3   1  LIG1       -0.1294
     33 O           7.9413   11.5369   13.7684 O.3     1  LIG1       -0.4256
     34 O           8.3610   10.7765   15.8464 O.2     1  LIG1       -0.2500
     35 S          11.7253   11.4546   15.9577 S.3     1  LIG1       -0.0923
     36 S          11.5964   11.4897   13.8703 S.3     1  LIG1       -0.0923
@<TRIPOS>BOND
     1    27    26    1
     2    29    28    1
     3    26    28   ar
     4    26    25   ar
     5    30    25    1
     6    28    20   ar
     7    25    23   ar
     8    17    16    1
     9    20    32    1
    10    20    21   ar
    11    32    31    1
    12    23    21   ar
    13    23    24    1
    14    19    18    1
    15    16    18   ar
    16    16    15   ar
    17    21    22    1
    18    18    10   ar
    19    31    15    1
    20    15    13   ar
    21     9     7    1
    22    10    33    1
    23    10    11   ar
    24    33     1    1
    25     8     7    1
    26     7    36    1
    27     7     2    1
    28    36    35    1
    29    13    11   ar
    30    13    14    1
    31    11    12    1
    32     1     2    1
    33     1    34    2
    34     2     3    1
    35     2     4    1
    36    35     4    1
    37     4     6    1
    38     4     5    1
