@<TRIPOS>MOLECULE
P-(N-2,6-diisopropylanilino)-cyclopentadienylidene- diphenylphosphorane
 63 66 0 0 0
SMALL
GASTEIGER

@<TRIPOS>ATOM
      1 C          -2.4384    9.8368   10.7479 C.3     1  LIG1        0.1944
      2 C          -3.6234   10.3990   10.1879 C.2     1  LIG1       -0.0297
      3 H          -3.7885   10.5512    9.2652 H       1  LIG1        0.0620
      4 C          -4.4884   10.6840   11.2269 C.2     1  LIG1       -0.0613
      5 H          -5.3551   11.0617   11.1399 H       1  LIG1        0.0616
      6 C          -3.8643   10.3173   12.4400 C.2     1  LIG1       -0.0613
      7 H          -4.2391   10.4201   13.3076 H       1  LIG1        0.0616
      8 C          -2.6154    9.7839   12.1575 C.2     1  LIG1       -0.0297
      9 H          -1.9927    9.4460   12.7902 H       1  LIG1        0.0620
     10 C           0.0495    8.4506   10.9662 C.ar    1  LIG1        0.1229
     11 C           0.3676    7.1098   11.1860 C.ar    1  LIG1       -0.0172
     12 H          -0.0823    6.4277   10.7015 H       1  LIG1        0.0657
     13 C           1.3487    6.7757   12.1195 C.ar    1  LIG1       -0.0580
     14 H           1.5650    5.8634   12.2749 H       1  LIG1        0.0619
     15 C           2.0062    7.7697   12.8187 C.ar    1  LIG1       -0.0615
     16 H           2.6760    7.5376   13.4510 H       1  LIG1        0.0618
     17 C           1.6995    9.0896   12.6065 C.ar    1  LIG1       -0.0580
     18 H           2.1531    9.7668   13.0948 H       1  LIG1        0.0619
     19 C           0.7288    9.4395   11.6806 C.ar    1  LIG1       -0.0172
     20 H           0.5246   10.3546   11.5319 H       1  LIG1        0.0657
     21 C          -1.9298    7.4894    9.0593 C.ar    1  LIG1        0.1229
     22 C          -1.1917    6.6492    8.2164 C.ar    1  LIG1       -0.0172
     23 H          -0.2768    6.8375    8.0428 H       1  LIG1        0.0657
     24 C          -1.7907    5.5475    7.6363 C.ar    1  LIG1       -0.0580
     25 H          -1.2860    4.9853    7.0606 H       1  LIG1        0.0619
     26 C          -3.1219    5.2574    7.8870 C.ar    1  LIG1       -0.0615
     27 H          -3.5299    4.5029    7.4779 H       1  LIG1        0.0618
     28 C          -3.8542    6.0685    8.7345 C.ar    1  LIG1       -0.0580
     29 H          -4.7649    5.8657    8.9132 H       1  LIG1        0.0619
     30 C          -3.2636    7.1779    9.3252 C.ar    1  LIG1       -0.0172
     31 H          -3.7693    7.7273    9.9122 H       1  LIG1        0.0657
     32 C          -0.2047    9.4952    7.3392 C.ar    1  LIG1        0.0698
     33 C           1.1741    9.2791    7.1847 C.ar    1  LIG1       -0.0205
     34 C           1.6225    8.7541    5.9668 C.ar    1  LIG1       -0.0565
     35 H           2.5510    8.5960    5.8403 H       1  LIG1        0.0621
     36 C           0.7400    8.4632    4.9474 C.ar    1  LIG1       -0.0611
     37 H           1.0578    8.0809    4.1383 H       1  LIG1        0.0618
     38 C          -0.6140    8.7304    5.1053 C.ar    1  LIG1       -0.0565
     39 H          -1.2115    8.5468    4.3902 H       1  LIG1        0.0621
     40 C          -1.1116    9.2624    6.2890 C.ar    1  LIG1       -0.0205
     41 C           2.1887    9.6317    8.2624 C.3     1  LIG1       -0.0197
     42 H           1.6843    9.9799    9.0523 H       1  LIG1        0.0344
     43 C           2.9994    8.4209    8.7253 C.3     1  LIG1       -0.0586
     44 H           2.3894    7.7109    9.0133 H       1  LIG1        0.0235
     45 H           3.5761    8.6803    9.4738 H       1  LIG1        0.0235
     46 H           3.5526    8.0949    7.9848 H       1  LIG1        0.0235
     47 C           3.1208   10.7477    7.7729 C.3     1  LIG1       -0.0586
     48 H           3.6546   10.4201    7.0195 H       1  LIG1        0.0235
     49 H           3.7172   11.0196    8.5022 H       1  LIG1        0.0235
     50 H           2.5858   11.5160    7.4853 H       1  LIG1        0.0235
     51 C          -2.5856    9.6390    6.4223 C.3     1  LIG1       -0.0197
     52 H          -2.8471    9.4811    7.3746 H       1  LIG1        0.0344
     53 C          -2.7669   11.1278    6.1430 C.3     1  LIG1       -0.0586
     54 H          -2.2290   11.6471    6.7761 H       1  LIG1        0.0235
     55 H          -3.7117   11.3661    6.2449 H       1  LIG1        0.0235
     56 H          -2.4771   11.3263    5.2280 H       1  LIG1        0.0235
     57 C          -3.5137    8.7894    5.5498 C.3     1  LIG1       -0.0586
     58 H          -3.3325    8.9730    4.6041 H       1  LIG1        0.0235
     59 H          -4.4460    9.0105    5.7528 H       1  LIG1        0.0235
     60 H          -3.3561    7.8397    5.7338 H       1  LIG1        0.0235
     61 N          -0.7359    9.9534    8.6045 N.pl3   1  LIG1       -0.2073
     62 H          -0.6325   10.7948    8.8226 H       1  LIG1        0.1925
     63 P          -1.2582    8.9858    9.8334 P.3     1  LIG1        0.1810
@<TRIPOS>BOND
     1    37    36    1
     2    39    38    1
     3    58    57    1
     4    36    38   ar
     5    36    34   ar
     6    38    40   ar
     7    56    53    1
     8    57    60    1
     9    57    59    1
    10    57    51    1
    11    35    34    1
    12    34    33   ar
    13    53    55    1
    14    53    51    1
    15    53    54    1
    16    40    51    1
    17    40    32   ar
    18    51    52    1
    19    48    47    1
    20    25    24    1
    21    33    32   ar
    22    33    41    1
    23    32    61    1
    24    27    26    1
    25    50    47    1
    26    24    26   ar
    27    24    22   ar
    28    47    41    1
    29    47    49    1
    30    26    28   ar
    31    46    43    1
    32    23    22    1
    33    22    21   ar
    34    41    43    1
    35    41    42    1
    36    61    62    1
    37    61    63    1
    38    43    44    1
    39    43    45    1
    40    28    29    1
    41    28    30   ar
    42    21    30   ar
    43    21    63    1
    44     3     2    1
    45    30    31    1
    46    63     1    1
    47    63    10    1
    48     2     1    1
    49     2     4    2
    50    12    11    1
    51     1     8    1
    52    10    11   ar
    53    10    19   ar
    54     5     4    1
    55    11    13   ar
    56     4     6    1
    57    20    19    1
    58    19    17   ar
    59    13    14    1
    60    13    15   ar
    61     8     6    2
    62     8     9    1
    63     6     7    1
    64    17    15   ar
    65    17    18    1
    66    15    16    1
