@<TRIPOS>MOLECULE
C24 H28 B Br3 N4
 120 120 0 0 0
SMALL
GASTEIGER

@<TRIPOS>ATOM
      1 C          18.7514    9.7806    2.9560 C.2     1  LIG1        0.0000
      2 H          19.1356   10.5489    3.3118 H       1  LIG1        0.0000
      3 C          19.3642    9.1676    1.8869 C.2     1  LIG1        0.0000
      4 H          20.1536    9.5174    1.5423 H       1  LIG1        0.0000
      5 C          18.8099    8.0265    1.3225 C.3     1  LIG1        0.0000
      6 C          17.6254    7.5920    1.8571 C.2     1  LIG1        0.0000
      7 H          17.2065    6.8483    1.4864 H       1  LIG1        0.0000
      8 C          17.0391    8.2261    2.9262 C.2     1  LIG1        0.0000
      9 H          16.2321    7.9064    3.2596 H       1  LIG1        0.0000
     10 C          19.4425    7.3217    0.1676 C.3     1  LIG1        0.0000
     11 H          19.8526    6.5092    0.4750 H       1  LIG1        0.0000
     12 H          20.1095    7.8870   -0.2272 H       1  LIG1        0.0000
     13 H          18.7723    7.1115   -0.4862 H       1  LIG1        0.0000
     14 C          18.9908   10.4147    5.8636 C.2     1  LIG1        0.0000
     15 H          19.2339    9.5792    5.5358 H       1  LIG1        0.0000
     16 C          19.8260   11.0683    6.7241 C.2     1  LIG1        0.0000
     17 H          20.6361   10.6744    6.9588 H       1  LIG1        0.0000
     18 C          19.4927   12.3118    7.2606 C.3     1  LIG1        0.0000
     19 C          18.2446   12.8152    6.9048 C.2     1  LIG1        0.0000
     20 H          17.9568   13.6207    7.2662 H       1  LIG1        0.0000
     21 C          17.4284   12.1369    6.0257 C.2     1  LIG1        0.0000
     22 H          16.5987   12.4937    5.8021 H       1  LIG1        0.0000
     23 C          20.3900   13.0360    8.1938 C.3     1  LIG1        0.0000
     24 H          20.5865   13.9051    7.8380 H       1  LIG1        0.0000
     25 H          21.2056   12.5414    8.3018 H       1  LIG1        0.0000
     26 H          19.9575   13.1297    9.0450 H       1  LIG1        0.0000
     27 C          16.4718    7.9665    5.9139 C.2     1  LIG1        0.0000
     28 H          17.1818    7.5920    5.4426 H       1  LIG1        0.0000
     29 C          15.8724    7.2405    6.9141 C.2     1  LIG1        0.0000
     30 H          16.1746    6.3820    7.1060 H       1  LIG1        0.0000
     31 C          14.8177    7.7792    7.6443 C.3     1  LIG1        0.0000
     32 C          14.3759    9.0369    7.2941 C.2     1  LIG1        0.0000
     33 H          13.6504    9.4167    7.7318 H       1  LIG1        0.0000
     34 C          15.0199    9.7276    6.2920 C.2     1  LIG1        0.0000
     35 H          14.7259   10.5843    6.0834 H       1  LIG1        0.0000
     36 C          14.1628    7.0020    8.7321 C.3     1  LIG1        0.0000
     37 H          14.7582    6.9384    9.4827 H       1  LIG1        0.0000
     38 H          13.9529    6.1206    8.4136 H       1  LIG1        0.0000
     39 H          13.3544    7.4454    9.0003 H       1  LIG1        0.0000
     40 C          14.6090   10.5295    3.4459 C.2     1  LIG1        0.0000
     41 H          14.3230    9.7223    3.8072 H       1  LIG1        0.0000
     42 C          13.7784   11.2096    2.5891 C.2     1  LIG1        0.0000
     43 H          12.9417   10.8598    2.3860 H       1  LIG1        0.0000
     44 C          14.1805   12.4249    2.0228 C.3     1  LIG1        0.0000
     45 C          15.4546   12.8594    2.3507 C.2     1  LIG1        0.0000
     46 H          15.7758   13.6490    1.9800 H       1  LIG1        0.0000
     47 C          16.2497   12.1564    3.2075 C.2     1  LIG1        0.0000
     48 H          17.0998   12.4778    3.4049 H       1  LIG1        0.0000
     49 C          13.3018   13.1632    1.0841 C.3     1  LIG1        0.0000
     50 H          13.1201   14.0358    1.4361 H       1  LIG1        0.0000
     51 H          12.4777   12.6845    0.9742 H       1  LIG1        0.0000
     52 H          13.7396   13.2445    0.2328 H       1  LIG1        0.0000
     53 C           9.8356   12.8152    3.9190 C.2     2  LIG2        0.0000
     54 H          10.3020   12.4708    4.6473 H       2  LIG2        0.0000
     55 C          10.4008   13.8344    3.1944 C.2     2  LIG2        0.0000
     56 H          11.2357   14.1683    3.4291 H       2  LIG2        0.0000
     57 C           9.7121   14.3714    2.0955 C.3     2  LIG2        0.0000
     58 C           8.4528   13.8592    1.8161 C.2     2  LIG2        0.0000
     59 H           7.9578   14.2072    1.1101 H       2  LIG2        0.0000
     60 C           7.9356   12.8417    2.5816 C.2     2  LIG2        0.0000
     61 H           7.0849   12.5167    2.3879 H       2  LIG2        0.0000
     62 C          10.3151   15.4578    1.2517 C.3     2  LIG2        0.0000
     63 H          10.6270   15.0851    0.4228 H       2  LIG2        0.0000
     64 H          11.0539   15.8534    1.7192 H       2  LIG2        0.0000
     65 H           9.6534   16.1290    1.0710 H       2  LIG2        0.0000
     66 C           7.9543   12.7375    6.6999 C.2     2  LIG2        0.0000
     67 H           8.7896   12.3772    6.8899 H       2  LIG2        0.0000
     68 C           7.4729   13.7479    7.4841 C.2     2  LIG2        0.0000
     69 H           7.9842   14.0570    8.1975 H       2  LIG2        0.0000
     70 C           6.2351   14.3202    7.2345 C.3     2  LIG2        0.0000
     71 C           5.5266   13.8115    6.1374 C.2     2  LIG2        0.0000
     72 H           4.6953   14.1665    5.9232 H       2  LIG2        0.0000
     73 C           6.0383   12.8011    5.3830 C.2     2  LIG2        0.0000
     74 H           5.5459   12.4831    4.6622 H       2  LIG2        0.0000
     75 C           5.6821   15.4207    8.0857 C.3     2  LIG2        0.0000
     76 H           5.0399   15.9241    7.5810 H       2  LIG2        0.0000
     77 H           6.3947   15.9983    8.3633 H       2  LIG2        0.0000
     78 H           5.2557   15.0427    8.8587 H       2  LIG2        0.0000
     79 C           9.9541    9.7753    4.5374 C.2     2  LIG2        0.0000
     80 H          10.1803   10.1656    3.7234 H       2  LIG2        0.0000
     81 C          10.6544    8.6872    4.9714 C.2     2  LIG2        0.0000
     82 H          11.3521    8.3515    4.4573 H       2  LIG2        0.0000
     83 C          10.3295    8.0742    6.1803 C.3     2  LIG2        0.0000
     84 C           9.2769    8.6200    6.9086 C.2     2  LIG2        0.0000
     85 H           9.0318    8.2367    7.7188 H       2  LIG2        0.0000
     86 C           8.5994    9.7152    6.4448 C.2     2  LIG2        0.0000
     87 H           7.8967   10.0632    6.9458 H       2  LIG2        0.0000
     88 C          11.0797    6.8678    6.6645 C.3     2  LIG2        0.0000
     89 H          11.0945    6.8625    7.6238 H       2  LIG2        0.0000
     90 H          11.9791    6.8943    6.3293 H       2  LIG2        0.0000
     91 H          10.6449    6.0729    6.3460 H       2  LIG2        0.0000
     92 C           7.2454    9.8406    2.6636 C.2     2  LIG2        0.0000
     93 H           7.9478   10.2204    2.1849 H       2  LIG2        0.0000
     94 C           6.5755    8.7790    2.1234 C.2     2  LIG2        0.0000
     95 H           6.8132    8.4593    1.2834 H       2  LIG2        0.0000
     96 C           5.5355    8.1749    2.8294 C.3     2  LIG2        0.0000
     97 C           5.2064    8.7066    4.0736 C.2     2  LIG2        0.0000
     98 H           4.5168    8.3303    4.5709 H       2  LIG2        0.0000
     99 C           5.8934    9.7806    4.5653 C.2     2  LIG2        0.0000
    100 H           5.6523   10.1285    5.3942 H       2  LIG2        0.0000
    101 C           4.8176    6.9790    2.2799 C.3     2  LIG2        0.0000
    102 H           4.7901    7.0356    1.3225 H       2  LIG2        0.0000
    103 H           3.9234    6.9561    2.6263 H       2  LIG2        0.0000
    104 H           5.2834    6.1806    2.5406 H       2  LIG2        0.0000
    105 B          16.8383   10.1197    4.5951 B       1  LIG1        0.0000
    106 B           7.9230   11.2961    4.6026 B       2  LIG2        0.0000
    107 N          17.6192    9.3125    3.5055 N.pl3   1  LIG1        0.0000
    108 N          17.8157   10.9623    5.4836 N.pl3   1  LIG1        0.0000
    109 N          16.0538    9.2153    5.6010 N.pl3   1  LIG1        0.0000
    110 N          15.8329   11.0011    3.7774 N.pl3   1  LIG1        0.0000
    111 N           8.6307   12.2977    3.6115 N.pl3   2  LIG2        0.0000
    112 N           7.2431   12.2465    5.6500 N.pl3   2  LIG2        0.0000
    113 N           6.9197   10.3582    3.8777 N.pl3   2  LIG2        0.0000
    114 N           8.9312   10.3016    5.2676 N.pl3   2  LIG2        0.0000
    115 BR          5.5245   10.4209    8.2390 Br      3  LIG3        0.0000
    116 BR         10.4225   10.6078    1.0539 Br      4  LIG4        0.0000
    117 BR         20.0646   15.8294    5.5827 Br      5  LIG5        0.0000
    118 BR          4.2008   11.9635    2.2694 Br      6  LIG6        0.0000
    119 BR         19.8591    6.8506    5.1886 Br      7  LIG7        0.0000
    120 BR         22.2779    2.9485    2.2992 Br      8  LIG8        0.0000
@<TRIPOS>BOND
     1    13    10    1
     2    12    10    1
     3    10    11    1
     4    10     5    1
     5    52    49    1
     6    63    62    1
     7    51    49    1
     8    65    62    1
     9    49    50    1
    10    49    44    1
    11    59    58    1
    12    62    64    1
    13    62    57    1
    14    95    94    1
    15   102   101    1
    16     5     6    1
    17     5     3    1
    18     7     6    1
    19     4     3    1
    20    58    57    1
    21    58    60    2
    22     6     8    2
    23     3     1    2
    24    46    45    1
    25    44    45    1
    26    44    42    1
    27    57    55    1
    28    94    92    2
    29    94    96    1
    30    93    92    1
    31   101   104    1
    32   101   103    1
    33   101    96    1
    34    45    47    2
    35    43    42    1
    36    61    60    1
    37    60   111    1
    38    42    40    2
    39    92   113    1
    40    96    97    1
    41     8     9    1
    42     8   107    1
    43     1     2    1
    44     1   107    1
    45    55    56    1
    46    55    53    2
    47    47    48    1
    48    47   110    1
    49    40   110    1
    50    40    41    1
    51   107   105    1
    52   111    53    1
    53   111   106    1
    54    80    79    1
    55   110   105    1
    56   113    99    1
    57   113   106    1
    58    53    54    1
    59    97    99    2
    60    97    98    1
    61    82    81    1
    62    79    81    2
    63    79   114    1
    64    99   100    1
    65   105   108    1
    66   105   109    1
    67   106   114    1
    68   106   112    1
    69    74    73    1
    70    81    83    1
    71   114    86    1
    72    73   112    1
    73    73    71    2
    74    28    27    1
    75   108    14    1
    76   108    21    1
    77    15    14    1
    78   109    27    1
    79   109    34    1
    80   112    66    1
    81    22    21    1
    82    14    16    2
    83    27    29    2
    84    72    71    1
    85    21    19    2
    86    35    34    1
    87    71    70    1
    88    83    88    1
    89    83    84    1
    90    34    32    2
    91    90    88    1
    92    91    88    1
    93    86    84    2
    94    86    87    1
    95    88    89    1
    96    66    67    1
    97    66    68    2
    98    16    17    1
    99    16    18    1
   100    19    18    1
   101    19    20    1
   102    84    85    1
   103    29    30    1
   104    29    31    1
   105    70    68    1
   106    70    75    1
   107    18    23    1
   108    32    31    1
   109    32    33    1
   110    68    69    1
   111    76    75    1
   112    31    36    1
   113    24    23    1
   114    75    77    1
   115    75    78    1
   116    23    25    1
   117    23    26    1
   118    38    36    1
   119    36    39    1
   120    36    37    1
