@<TRIPOS>MOLECULE
?
 86 88 0 0 0
SMALL
GASTEIGER

@<TRIPOS>ATOM
      1 C           1.8205    6.9298    3.7395 C.3     1  LIG1        0.1465
      2 C           3.2296    6.8335    4.3683 C.ar    1  LIG1       -0.0210
      3 C           3.7121    7.8778    5.1688 C.ar    1  LIG1       -0.0568
      4 H           3.1664    8.6424    5.3123 H       1  LIG1        0.0621
      5 C           4.9577    7.8182    5.7485 C.ar    1  LIG1       -0.0615
      6 H           5.2500    8.5293    6.3056 H       1  LIG1        0.0618
      7 C           5.7893    6.7332    5.5290 C.ar    1  LIG1       -0.0617
      8 H           6.6525    6.6980    5.9257 H       1  LIG1        0.0618
      9 C           5.3395    5.6999    4.7186 C.ar    1  LIG1       -0.0615
     10 H           5.9014    4.9523    4.5498 H       1  LIG1        0.0618
     11 C           4.0759    5.7513    4.1545 C.ar    1  LIG1       -0.0568
     12 H           3.7815    5.0319    3.6086 H       1  LIG1        0.0621
     13 C           1.4610    5.6527    2.9460 C.ar    1  LIG1       -0.0210
     14 C           1.2356    4.4377    3.6016 C.ar    1  LIG1       -0.0568
     15 H           1.2765    4.4041    4.5498 H       1  LIG1        0.0621
     16 C           0.9533    3.2826    2.8897 C.ar    1  LIG1       -0.0615
     17 H           0.8014    2.4674    3.3526 H       1  LIG1        0.0618
     18 C           0.8930    3.3141    1.4997 C.ar    1  LIG1       -0.0617
     19 H           0.7069    2.5242    1.0059 H       1  LIG1        0.0618
     20 C           1.1081    4.5069    0.8512 C.ar    1  LIG1       -0.0615
     21 H           1.0589    4.5394   -0.0971 H       1  LIG1        0.0618
     22 C           1.3949    5.6642    1.5588 C.ar    1  LIG1       -0.0568
     23 H           1.5486    6.4762    1.0889 H       1  LIG1        0.0621
     24 C           1.7170    8.1816    2.8362 C.ar    1  LIG1       -0.0210
     25 C           2.8557    8.6841    2.1961 C.ar    1  LIG1       -0.0568
     26 H           3.6999    8.2807    2.3565 H       1  LIG1        0.0621
     27 C           2.7668    9.7581    1.3337 C.ar    1  LIG1       -0.0615
     28 H           3.5465   10.0776    0.8962 H       1  LIG1        0.0618
     29 C           1.5476   10.3716    1.1002 C.ar    1  LIG1       -0.0617
     30 H           1.4947   11.1197    0.5177 H       1  LIG1        0.0618
     31 C           0.4028    9.8890    1.7248 C.ar    1  LIG1       -0.0615
     32 H          -0.4362   10.3091    1.5743 H       1  LIG1        0.0618
     33 C           0.4934    8.7865    2.5689 C.ar    1  LIG1       -0.0568
     34 H          -0.2951    8.4422    2.9727 H       1  LIG1        0.0621
     35 C           7.0526    2.9643   10.3011 C.3     2  LIG2        0.1465
     36 C           6.6954    4.2605   11.0650 C.ar    2  LIG2       -0.0210
     37 C           6.4235    5.4498   10.3925 C.ar    2  LIG2       -0.0568
     38 H           6.4305    5.4657    9.4429 H       2  LIG2        0.0621
     39 C           6.1406    6.6159   11.0988 C.ar    2  LIG2       -0.0615
     40 H           5.9431    7.4152   10.6247 H       2  LIG2        0.0618
     41 C           6.1453    6.6212   12.4719 C.ar    2  LIG2       -0.0617
     42 H           5.9570    7.4224   12.9488 H       2  LIG2        0.0618
     43 C           6.4240    5.4605   13.1514 C.ar    2  LIG2       -0.0615
     44 H           6.4317    5.4586   14.1010 H       2  LIG2        0.0618
     45 C           6.6938    4.2865   12.4536 C.ar    2  LIG2       -0.0568
     46 H           6.8814    3.4896   12.9361 H       2  LIG2        0.0621
     47 C           6.9434    1.7356   11.2324 C.ar    2  LIG2       -0.0210
     48 C           5.7033    1.1825   11.5504 C.ar    2  LIG2       -0.0568
     49 H           4.9161    1.5483   11.1649 H       2  LIG2        0.0621
     50 C           5.6015    0.1013   12.4240 C.ar    2  LIG2       -0.0615
     51 H           4.7499   -0.2628   12.6323 H       2  LIG2        0.0618
     52 C           6.7442   -0.4404   12.9924 C.ar    2  LIG2       -0.0617
     53 H           6.6819   -1.1835   13.5805 H       2  LIG2        0.0618
     54 C           7.9800    0.1137   12.6899 C.ar    2  LIG2       -0.0615
     55 H           8.7660   -0.2446   13.0853 H       2  LIG2        0.0618
     56 C           8.0787    1.1815   11.8219 C.ar    2  LIG2       -0.0568
     57 H           8.9332    1.5449   11.6235 H       2  LIG2        0.0621
     58 C           8.4604    3.0464    9.6792 C.ar    2  LIG2       -0.0210
     59 C           9.3146    4.1345    9.9015 C.ar    2  LIG2       -0.0568
     60 H           9.0136    4.8633   10.4319 H       2  LIG2        0.0621
     61 C          10.5912    4.1651    9.3613 C.ar    2  LIG2       -0.0615
     62 H          11.1607    4.9040    9.5400 H       2  LIG2        0.0618
     63 C          11.0405    3.1274    8.5636 C.ar    2  LIG2       -0.0617
     64 H          11.9114    3.1533    8.1866 H       2  LIG2        0.0618
     65 C          10.2036    2.0509    8.3216 C.ar    2  LIG2       -0.0615
     66 H          10.5008    1.3413    7.7659 H       2  LIG2        0.0618
     67 C           8.9398    1.9990    8.8801 C.ar    2  LIG2       -0.0568
     68 H           8.3882    1.2419    8.7184 H       2  LIG2        0.0621
     69 O           0.7034    8.5521    5.6735 O.2     1  LIG1       -0.2572
     70 O          -0.7619    6.7372    4.6781 O.3     1  LIG1       -0.3230
     71 O           1.0346    6.1115    6.2576 O.3     1  LIG1       -0.3230
     72 O           5.9260    1.3029    8.4140 O.2     2  LIG2       -0.2572
     73 O           6.2549    3.7414    7.7780 O.3     2  LIG2       -0.3230
     74 O           4.4606    3.1349    9.3785 O.3     2  LIG2       -0.3230
     75 O           3.6305    4.9958    7.9038 O.3     3  HOH3       -0.4105
     76 O          -1.5982    4.8510    6.1255 O.3     4  HOH4       -0.4105
     77 P           0.6489    7.1487    5.1638 P.3     1  LIG1        0.3468
     78 P           5.8736    2.7230    8.8907 P.3     2  LIG2        0.3468
     79 H           3.3770    5.7225    8.1598 H       0  HOH0        0.2052
     80 H           6.4477    3.3085    7.1750 H       2  LIG2        0.2198
     81 H           4.0086    3.7801    8.9195 H       2  LIG2        0.2198
     82 H           1.3896    6.4667    6.9781 H       1  LIG1        0.2198
     83 H          -1.2111    5.9243    5.1491 H       1  LIG1        0.2198
     84 H           4.1862    5.1305    7.3157 H       0  HOH0        0.2052
     85 H          -2.1099    3.9452    6.0214 H       0  HOH0        0.2052
     86 H          -0.9149    4.6678    6.5982 H       0  HOH0        0.2052
@<TRIPOS>BOND
     1    21    20    1
     2    30    29    1
     3    20    18   ar
     4    20    22   ar
     5    28    27    1
     6    19    18    1
     7    23    22    1
     8    29    27   ar
     9    29    31   ar
    10    27    25   ar
    11    18    16   ar
    12    22    13   ar
    13    32    31    1
    14    31    33   ar
    15    25    26    1
    16    25    24   ar
    17    33    24   ar
    18    33    34    1
    19    24     1    1
    20    16    17    1
    21    16    14   ar
    22    13    14   ar
    23    13     1    1
    24    14    15    1
    25    12    11    1
    26     1     2    1
    27     1    77    1
    28    11     2   ar
    29    11     9   ar
    30     2     3   ar
    31    10     9    1
    32    70    83    1
    33    70    77    1
    34     9     7   ar
    35    77    69    2
    36    77    71    1
    37     3     4    1
    38     3     5   ar
    39     7     5   ar
    40     7     8    1
    41     5     6    1
    42    85    76    1
    43    76    86    1
    44    71    82    1
    45    80    73    1
    46    84    75    1
    47    66    65    1
    48    73    78    1
    49    75    79    1
    50    64    63    1
    51    65    63   ar
    52    65    67   ar
    53    72    78    2
    54    63    61   ar
    55    68    67    1
    56    67    58   ar
    57    78    74    1
    58    78    35    1
    59    81    74    1
    60    61    62    1
    61    61    59   ar
    62    38    37    1
    63    58    59   ar
    64    58    35    1
    65    59    60    1
    66    35    36    1
    67    35    47    1
    68    37    36   ar
    69    37    39   ar
    70    40    39    1
    71    36    45   ar
    72    39    41   ar
    73    49    48    1
    74    47    48   ar
    75    47    56   ar
    76    48    50   ar
    77    57    56    1
    78    56    54   ar
    79    50    51    1
    80    50    52   ar
    81    45    46    1
    82    45    43   ar
    83    41    42    1
    84    41    43   ar
    85    54    52   ar
    86    54    55    1
    87    52    53    1
    88    43    44    1
