@<TRIPOS>MOLECULE
?
 26 27 0 0 0
SMALL
GASTEIGER

@<TRIPOS>ATOM
      1 C           5.5704   -0.6468    8.5806 C.3     1  LIG1        0.0952
      2 H           5.7395   -0.6122    9.5544 H       1  LIG1        0.0602
      3 H           5.3537    0.2673    8.2676 H       1  LIG1        0.0602
      4 C           6.7856   -1.1550    7.8697 C.3     1  LIG1       -0.0373
      5 H           6.9939   -2.0600    8.1841 H       1  LIG1        0.0253
      6 H           7.5440   -0.5629    8.0534 H       1  LIG1        0.0253
      7 H           6.6144   -1.1769    6.9043 H       1  LIG1        0.0253
      8 C           3.4448   -1.1988   11.9931 C.3     1  LIG1        0.0644
      9 H           3.8624   -0.3084   11.8804 H       1  LIG1        0.0485
     10 H           3.9034   -1.6476   12.7471 H       1  LIG1        0.0485
     11 C           1.9939   -0.9990   12.3701 C.3     1  LIG1        0.1136
     12 H           1.5039   -1.8419   12.1976 H       1  LIG1        0.0619
     13 H           1.9429   -0.8174   13.3425 H       1  LIG1        0.0619
     14 N           2.6351   -0.0620    9.4185 N.3     1  LIG1        0.2213
     15 N           0.1901   -1.1677    9.6595 N.3     1  LIG1        0.2068
     16 N           2.2219   -2.5991    8.5840 N.3     1  LIG1        0.2077
     17 N           3.6896   -1.9806   10.7726 N.3     1  LIG1       -0.1239
     18 O           4.4577   -1.5473    8.2981 O.3     1  LIG1       -0.1725
     19 O           1.3135    0.0949   11.6526 O.3     1  LIG1       -0.1715
     20 P           3.2273   -1.5398    9.2658 P.3     1  LIG1        0.4982
     21 P           1.1984   -0.0111   10.0826 P.3     1  LIG1        0.5210
     22 P           0.6880   -2.3801    8.7833 P.3     1  LIG1        0.4854
     23 CL          0.3935    1.7543    9.6817 Cl      1  LIG1        0.1763
     24 CL         -0.2100   -2.3216    6.9816 Cl      1  LIG1        0.1627
     25 CL         -0.1369   -4.0297    9.5429 Cl      1  LIG1        0.1627
     26 H           3.9432   -2.6639   10.8927 H       1  LIG1        0.1727
@<TRIPOS>BOND
     1     7     4    1
     2    24    22    1
     3     4     6    1
     4     4     5    1
     5     4     1    1
     6     3     1    1
     7    18     1    1
     8    18    20    1
     9     1     2    1
    10    16    22    1
    11    16    20    1
    12    22    25    1
    13    22    15    1
    14    20    14    1
    15    20    17    1
    16    14    21    1
    17    15    21    1
    18    23    21    1
    19    21    19    1
    20    17    26    1
    21    17     8    1
    22    19    11    1
    23     9     8    1
    24     8    11    1
    25     8    10    1
    26    12    11    1
    27    11    13    1
