@<TRIPOS>MOLECULE
?
 27 28 0 0 0
SMALL
GASTEIGER

@<TRIPOS>ATOM
      1 C           5.5898   10.5733    9.7338 C.ar    1  LIG1        0.0283
      2 H           6.3595   10.8377   10.1851 H       1  LIG1        0.0830
      3 C           4.7863   11.5488    9.2248 C.ar    1  LIG1       -0.0436
      4 H           5.0012   12.4469    9.3315 H       1  LIG1        0.0633
      5 C           3.6542   11.1734    8.5525 C.ar    1  LIG1       -0.0583
      6 H           3.0883   11.8146    8.1870 H       1  LIG1        0.0619
      7 C           3.3678    9.8451    8.4259 C.ar    1  LIG1       -0.0347
      8 H           2.6030    9.5690    7.9755 H       1  LIG1        0.0639
      9 C           4.2331    8.9126    8.9774 C.ar    1  LIG1        0.0833
     10 C           3.9927    7.4768    8.8622 C.2     1  LIG1        0.0710
     11 H           4.5741    6.8779    9.2720 H       1  LIG1        0.0867
     12 C           1.8222    5.1338    7.4580 C.2     1  LIG1        0.2816
     13 C           1.7328    3.6492    7.5507 C.ar    1  LIG1        0.1270
     14 C           0.7032    3.0020    6.9113 C.ar    1  LIG1       -0.0311
     15 H           0.0790    3.4811    6.4155 H       1  LIG1        0.0640
     16 C           0.6112    1.6361    7.0161 C.ar    1  LIG1       -0.0582
     17 H          -0.0804    1.1733    6.6006 H       1  LIG1        0.0619
     18 C           1.5589    0.9698    7.7451 C.ar    1  LIG1       -0.0436
     19 H           1.5269    0.0443    7.8291 H       1  LIG1        0.0633
     20 C           2.5582    1.6912    8.3504 C.ar    1  LIG1        0.0284
     21 H           3.1959    1.2273    8.8433 H       1  LIG1        0.0830
     22 N           5.3493    9.2653    9.6298 N.ar    1  LIG1       -0.2540
     23 N           2.9976    7.0399    8.2077 N.2     1  LIG1       -0.1859
     24 N           2.8396    5.6820    8.1732 N.am    1  LIG1       -0.2016
     25 H           3.3839    5.1747    8.6044 H       1  LIG1        0.1776
     26 N           2.6661    3.0216    8.2728 N.ar    1  LIG1       -0.2503
     27 O           1.0447    5.7875    6.8010 O.2     1  LIG1       -0.2668
@<TRIPOS>BOND
     1    15    14    1
     2    17    16    1
     3    27    12    2
     4    14    16   ar
     5    14    13   ar
     6    16    18   ar
     7    12    13    1
     8    12    24   am
     9    13    26   ar
    10    18    19    1
    11    18    20   ar
    12     8     7    1
    13    24    23    1
    14    24    25    1
    15     6     5    1
    16    23    10    2
    17    26    20   ar
    18    20    21    1
    19     7     5   ar
    20     7     9   ar
    21     5     3   ar
    22    10     9    1
    23    10    11    1
    24     9    22   ar
    25     3     4    1
    26     3     1   ar
    27    22     1   ar
    28     1     2    1
