@<TRIPOS>MOLECULE
?
 93 96 0 0 0
SMALL
GASTEIGER

@<TRIPOS>ATOM
      1 P           4.7514    7.3681    4.9591 P.3     1  LIG1       -0.0656
      2 C           6.6378    3.6711    5.7366 C.3     1  LIG1        0.2552
      3 O           6.2340    5.0354    5.6852 O.3     1  LIG1       -0.4502
      4 P           6.6913    3.1371    1.4959 P.3     1  LIG1       -0.0656
      5 C           8.0690    3.5262    6.2237 C.3     1  LIG1        0.0340
      6 H           8.3312    2.5757    6.1409 H       1  LIG1        0.0349
      7 H           8.0946    3.7571    7.1868 H       1  LIG1        0.0349
      8 O           6.5479    3.1231    4.4179 O.3     1  LIG1       -0.4502
      9 C           9.1163    4.3805    5.4955 C.3     1  LIG1        0.0007
     10 C           8.5283    5.7596    5.2395 C.ar    1  LIG1        0.0012
     11 C           9.3573    6.8292    4.8875 C.ar    1  LIG1       -0.0516
     12 H          10.2979    6.6936    4.8713 H       1  LIG1        0.0624
     13 C           8.8565    8.0860    4.5598 C.ar    1  LIG1       -0.0494
     14 C           7.4707    8.2709    4.5772 C.ar    1  LIG1       -0.0477
     15 H           7.1153    9.1210    4.3468 H       1  LIG1        0.0628
     16 C           6.5910    7.2370    4.9254 C.ar    1  LIG1        0.0192
     17 C           7.1512    5.9893    5.2759 C.ar    1  LIG1        0.1365
     18 C          10.3593    4.4511    6.3925 C.3     1  LIG1       -0.0554
     19 H          10.1399    4.9328    7.2170 H       1  LIG1        0.0238
     20 H          11.0769    4.9223    5.9202 H       1  LIG1        0.0238
     21 H          10.6550    3.5431    6.6124 H       1  LIG1        0.0238
     22 C           9.5167    3.7563    4.1426 C.3     1  LIG1       -0.0554
     23 H          10.2424    4.2802    3.7438 H       1  LIG1        0.0238
     24 H           8.7436    3.7571    3.5412 H       1  LIG1        0.0238
     25 H           9.8195    2.8349    4.2849 H       1  LIG1        0.0238
     26 C           9.7968    9.1889    4.1428 C.3     1  LIG1       -0.0397
     27 H          10.4268    8.8459    3.4747 H       1  LIG1        0.0278
     28 H          10.2919    9.5088    4.9257 H       1  LIG1        0.0278
     29 H           9.2827    9.9282    3.7574 H       1  LIG1        0.0278
     30 C           5.6948    2.9315    6.6744 C.3     1  LIG1        0.0340
     31 H           5.7457    3.3570    7.5661 H       1  LIG1        0.0349
     32 H           6.0182    2.0014    6.7711 H       1  LIG1        0.0349
     33 C           4.2248    2.8880    6.2456 C.3     1  LIG1        0.0007
     34 C           4.1475    2.7720    4.7262 C.ar    1  LIG1        0.0012
     35 C           2.9255    2.4908    4.1055 C.ar    1  LIG1       -0.0516
     36 H           2.1462    2.4130    4.6431 H       1  LIG1        0.0624
     37 C           2.8087    2.3205    2.7302 C.ar    1  LIG1       -0.0494
     38 C           3.9573    2.4698    1.9520 C.ar    1  LIG1       -0.0477
     39 H           3.8928    2.3503    1.0111 H       1  LIG1        0.0628
     40 C           5.1954    2.7876    2.5079 C.ar    1  LIG1        0.0192
     41 C           5.2777    2.9101    3.9131 C.ar    1  LIG1        0.1365
     42 C           3.5916    1.6442    6.9038 C.3     1  LIG1       -0.0554
     43 H           3.9815    0.8336    6.5142 H       1  LIG1        0.0238
     44 H           2.6244    1.6485    6.7485 H       1  LIG1        0.0238
     45 H           3.7671    1.6594    7.8684 H       1  LIG1        0.0238
     46 C           3.4589    4.1328    6.7344 C.3     1  LIG1       -0.0554
     47 H           3.8508    4.9357    6.3328 H       1  LIG1        0.0238
     48 H           3.5201    4.1920    7.7112 H       1  LIG1        0.0238
     49 H           2.5175    4.0618    6.4704 H       1  LIG1        0.0238
     50 C           1.4908    1.9926    2.0868 C.3     1  LIG1       -0.0397
     51 H           0.8232    1.8176    2.7825 H       1  LIG1        0.0278
     52 H           1.5911    1.1974    1.5220 H       1  LIG1        0.0278
     53 H           1.1991    2.7493    1.5356 H       1  LIG1        0.0278
     54 C           4.4653    9.1883    4.7126 C.3     1  LIG1       -0.0219
     55 H           5.0040    9.5165    3.9372 H       1  LIG1        0.0346
     56 C           4.8858    9.9237    5.9917 C.3     1  LIG1       -0.0584
     57 H           4.7782   10.8891    5.8643 H       1  LIG1        0.0236
     58 H           5.8240    9.7229    6.1908 H       1  LIG1        0.0236
     59 H           4.3225    9.6285    6.7379 H       1  LIG1        0.0236
     60 C           2.9766    9.4331    4.4550 C.3     1  LIG1       -0.0584
     61 H           2.7863   10.3922    4.5222 H       1  LIG1        0.0236
     62 H           2.4461    8.9470    5.1207 H       1  LIG1        0.0236
     63 H           2.7435    9.1163    3.5579 H       1  LIG1        0.0236
     64 C           4.3930    6.5937    3.2864 C.3     1  LIG1       -0.0219
     65 H           4.9406    5.7576    3.2511 H       1  LIG1        0.0346
     66 C           2.9365    6.1438    3.1649 C.3     1  LIG1       -0.0584
     67 H           2.8258    5.6106    2.3502 H       1  LIG1        0.0236
     68 H           2.3546    6.9312    3.1211 H       1  LIG1        0.0236
     69 H           2.6959    5.6015    3.9448 H       1  LIG1        0.0236
     70 C           4.8336    7.4332    2.0835 C.3     1  LIG1       -0.0584
     71 H           4.7867    6.8888    1.2696 H       1  LIG1        0.0236
     72 H           5.7548    7.7397    2.2188 H       1  LIG1        0.0236
     73 H           4.2421    8.2091    1.9920 H       1  LIG1        0.0236
     74 C           7.5583    1.4884    1.6901 C.3     1  LIG1       -0.0219
     75 H           7.5812    1.3097    2.6737 H       1  LIG1        0.0346
     76 C           6.8511    0.2862    1.0684 C.3     1  LIG1       -0.0584
     77 H           7.3190   -0.5362    1.3240 H       1  LIG1        0.0236
     78 H           6.8534    0.3739    0.0922 H       1  LIG1        0.0236
     79 H           5.9260    0.2490    1.3905 H       1  LIG1        0.0236
     80 C           9.0239    1.5510    1.2477 C.3     1  LIG1       -0.0584
     81 H           9.4991    0.7598    1.5779 H       1  LIG1        0.0236
     82 H           9.4419    2.3586    1.6142 H       1  LIG1        0.0236
     83 H           9.0686    1.5744    0.2690 H       1  LIG1        0.0236
     84 C           6.0207    3.1354   -0.2406 C.3     1  LIG1       -0.0219
     85 H           5.4362    2.3350   -0.3748 H       1  LIG1        0.0346
     86 C           7.1851    3.0997   -1.2383 C.3     1  LIG1       -0.0584
     87 H           6.8414    3.2364   -2.1462 H       1  LIG1        0.0236
     88 H           7.6327    2.2296   -1.1865 H       1  LIG1        0.0236
     89 H           7.8246    3.8099   -1.0202 H       1  LIG1        0.0236
     90 C           5.2063    4.4158   -0.4738 C.3     1  LIG1       -0.0584
     91 H           4.8112    4.3930   -1.3709 H       1  LIG1        0.0236
     92 H           5.7947    5.1954   -0.3960 H       1  LIG1        0.0236
     93 H           4.4930    4.4760    0.1950 H       1  LIG1        0.0236
@<TRIPOS>BOND
     1    87    86    1
     2    91    90    1
     3    86    88    1
     4    86    89    1
     5    86    84    1
     6    90    92    1
     7    90    84    1
     8    90    93    1
     9    85    84    1
    10    84     4    1
    11    78    76    1
    12    83    80    1
    13    39    38    1
    14    76    77    1
    15    76    79    1
    16    76    74    1
    17    80    81    1
    18    80    82    1
    19    80    74    1
    20    71    70    1
    21     4    74    1
    22     4    40    1
    23    52    50    1
    24    53    50    1
    25    74    75    1
    26    38    40   ar
    27    38    37   ar
    28    73    70    1
    29    70    72    1
    30    70    64    1
    31    50    37    1
    32    50    51    1
    33    67    66    1
    34    40    41   ar
    35    37    35   ar
    36    68    66    1
    37    66    64    1
    38    66    69    1
    39    65    64    1
    40    64     1    1
    41    27    26    1
    42    24    22    1
    43    63    60    1
    44    23    22    1
    45    29    26    1
    46    41     8    1
    47    41    34   ar
    48    55    54    1
    49    35    36    1
    50    35    34   ar
    51    22    25    1
    52    22     9    1
    53    26    13    1
    54    26    28    1
    55    15    14    1
    56     8     2    1
    57    60    61    1
    58    60    54    1
    59    60    62    1
    60    13    14   ar
    61    13    11   ar
    62    14    16   ar
    63    54     1    1
    64    54    56    1
    65    34    33    1
    66    12    11    1
    67    11    10   ar
    68    16     1    1
    69    16    17   ar
    70    10    17   ar
    71    10     9    1
    72    17     3    1
    73     9     5    1
    74     9    18    1
    75     3     2    1
    76     2     5    1
    77     2    30    1
    78    57    56    1
    79    20    18    1
    80    56    58    1
    81    56    59    1
    82     6     5    1
    83     5     7    1
    84    33    30    1
    85    33    46    1
    86    33    42    1
    87    47    46    1
    88    18    21    1
    89    18    19    1
    90    49    46    1
    91    43    42    1
    92    30    32    1
    93    30    31    1
    94    46    48    1
    95    44    42    1
    96    42    45    1
