@<TRIPOS>MOLECULE
?
 18 17 0 0 0
SMALL
GASTEIGER

@<TRIPOS>ATOM
      1 O          -0.0682    1.1024   -1.3009 O.co2   1  LIG1       -0.2425
      2 O           2.5383    2.6222   -0.7868 O.2     1  LIG1       -0.2470
      3 O           2.8831    0.3135    3.1820 O.2     1  LIG1       -0.2508
      4 O           0.6760   -0.0772   -3.0724 O.co2   1  LIG1       -0.2425
      5 O           2.2055    0.5826    0.1000 O.3     1  LIG1       -0.4507
      6 O           1.2771    1.6577    2.3308 O.3     1  LIG1       -0.4532
      7 C           0.7793    0.4391   -1.8289 C.2     1  LIG1        0.3928
      8 C           2.0907    0.0271   -1.2149 C.3     1  LIG1        0.1930
      9 H           2.1415   -0.9601   -1.1660 H       1  LIG1        0.0818
     10 H           2.8384    0.3476   -1.7787 H       1  LIG1        0.0818
     11 C           2.3408    1.9126    0.1665 C.2     1  LIG1        0.3457
     12 C           2.2496    2.4107    1.5879 C.3     1  LIG1        0.1887
     13 H           3.1343    2.3281    2.0241 H       1  LIG1        0.0816
     14 H           1.9960    3.3673    1.5865 H       1  LIG1        0.0816
     15 C           1.7307    0.6096    3.0373 C.2     1  LIG1        0.3081
     16 C           0.6010   -0.1452    3.6958 C.3     1  LIG1        0.0550
     17 H           0.8053   -1.1136    3.6700 H       1  LIG1        0.0383
     18 H           0.5454    0.1263    4.6453 H       1  LIG1        0.0383
@<TRIPOS>BOND
     1     4     7   ar
     2     7     1   ar
     3     7     8    1
     4    10     8    1
     5     8     9    1
     6     8     5    1
     7     2    11    2
     8     5    11    1
     9    11    12    1
    10    14    12    1
    11    12    13    1
    12    12     6    1
    13     6    15    1
    14    15     3    2
    15    15    16    1
    16    17    16    1
    17    16    18    1
