@<TRIPOS>MOLECULE
C46 H68 P2
 116 120 0 0 0
SMALL
GASTEIGER

@<TRIPOS>ATOM
      1 P          -0.8304    7.0379    3.5801 P.3     1  LIG1       -0.0083
      2 P          -3.7530    8.5770    2.1760 P.3     1  LIG1       -0.0083
      3 C          -1.0572    8.6476    3.1858 C.2     1  LIG1       -0.0020
      4 C          -2.2924    9.2953    2.5987 C.2     1  LIG1       -0.0020
      5 C          -0.4197    9.9744    3.1552 C.2     1  LIG1       -0.0313
      6 C          -1.5482   10.5835    2.6100 C.2     1  LIG1       -0.0313
      7 C           0.9546   10.3345    3.5835 C.3     1  LIG1       -0.0149
      8 C           1.8785   11.0620    2.6565 C.3     1  LIG1       -0.0456
      9 C           1.4154   11.7242    3.8397 C.3     1  LIG1       -0.0456
     10 C          -2.0497   11.9055    2.1782 C.3     1  LIG1       -0.0149
     11 C          -1.9196   13.1260    3.0554 C.3     1  LIG1       -0.0456
     12 C          -1.1595   13.0632    1.8167 C.3     1  LIG1       -0.0456
     13 C           0.9320    7.0911    4.1445 C.ar    1  LIG1       -0.0068
     14 C           1.2441    7.3038    5.5045 C.ar    1  LIG1       -0.0332
     15 C           2.5862    7.6301    5.8366 C.ar    1  LIG1       -0.0537
     16 C           3.5719    7.7074    4.8869 C.ar    1  LIG1       -0.0414
     17 C           3.2632    7.3715    3.5790 C.ar    1  LIG1       -0.0537
     18 C           1.9813    7.0041    3.1767 C.ar    1  LIG1       -0.0332
     19 C           0.2165    7.1829    6.6707 C.3     1  LIG1       -0.0120
     20 C          -0.7374    8.3745    6.6866 C.3     1  LIG1       -0.0560
     21 C          -0.5536    5.8706    6.5596 C.3     1  LIG1       -0.0560
     22 C           0.9294    7.1636    8.0567 C.3     1  LIG1       -0.0560
     23 C           5.0160    8.1086    5.2609 C.3     1  LIG1       -0.0127
     24 C           5.9773    7.0379    4.8166 C.3     1  LIG1       -0.0560
     25 C           5.2236    8.3817    6.7149 C.3     1  LIG1       -0.0560
     26 C           5.3411    9.4016    4.4766 C.3     1  LIG1       -0.0560
     27 C           1.8053    6.4941    1.7113 C.3     1  LIG1       -0.0120
     28 C           3.1585    6.0953    1.0993 C.3     1  LIG1       -0.0560
     29 C           0.9483    5.2156    1.7147 C.3     1  LIG1       -0.0560
     30 C           1.2157    7.5551    0.8103 C.3     1  LIG1       -0.0560
     31 C          -4.6937   10.0566    1.5662 C.ar    1  LIG1       -0.0068
     32 C          -4.6560   10.4312    0.2165 C.ar    1  LIG1       -0.0332
     33 C          -5.1459   11.7146   -0.1360 C.ar    1  LIG1       -0.0537
     34 C          -5.6978   12.5822    0.7911 C.ar    1  LIG1       -0.0414
     35 C          -5.8391   12.1544    2.0796 C.ar    1  LIG1       -0.0537
     36 C          -5.4045   10.8687    2.5080 C.ar    1  LIG1       -0.0332
     37 C          -4.1036    9.5225   -0.9146 C.3     1  LIG1       -0.0120
     38 C          -2.5723    9.4572   -0.8783 C.3     1  LIG1       -0.0560
     39 C          -4.7313    8.1231   -0.8330 C.3     1  LIG1       -0.0560
     40 C          -4.4939   10.0783   -2.3222 C.3     1  LIG1       -0.0560
     41 C          -6.1514   13.9961    0.3672 C.3     1  LIG1       -0.0127
     42 C          -6.8576   13.9405   -0.9407 C.3     1  LIG1       -0.0560
     43 C          -7.1882   14.5520    1.2920 C.3     1  LIG1       -0.0560
     44 C          -5.0225   14.8855    0.3853 C.3     1  LIG1       -0.0560
     45 C          -5.7167   10.4626    3.9723 C.3     1  LIG1       -0.0120
     46 C          -6.8139   11.3424    4.5843 C.3     1  LIG1       -0.0560
     47 C          -6.2985    9.0415    4.0017 C.3     1  LIG1       -0.0560
     48 C          -4.4862   10.5690    4.8801 C.3     1  LIG1       -0.0560
     49 H           1.7033    9.6941    4.1887 H       1  LIG1        0.0349
     50 H           2.7874   10.7937    2.5568 H       1  LIG1        0.0271
     51 H           1.5625   11.3545    1.7895 H       1  LIG1        0.0271
     52 H           0.8046   12.4396    3.7943 H       1  LIG1        0.0271
     53 H           2.0312   11.8789    4.5616 H       1  LIG1        0.0271
     54 H          -2.9815   11.7750    1.5243 H       1  LIG1        0.0349
     55 H          -2.6602   13.7375    3.1325 H       1  LIG1        0.0271
     56 H          -1.4861   13.0728    3.8975 H       1  LIG1        0.0271
     57 H          -0.2038   12.9713    1.8428 H       1  LIG1        0.0271
     58 H          -1.3779   13.6360    1.0766 H       1  LIG1        0.0271
     59 H           2.7282    7.7799    6.8792 H       1  LIG1        0.0624
     60 H           4.0672    7.3811    2.8378 H       1  LIG1        0.0624
     61 H          -1.1900    8.4204    5.8581 H       1  LIG1        0.0238
     62 H          -0.2374    9.1648    6.8294 H       1  LIG1        0.0238
     63 H          -1.3619    8.2560    7.3915 H       1  LIG1        0.0238
     64 H          -1.0236    5.8464    5.7368 H       1  LIG1        0.0238
     65 H          -1.1669    5.8029    7.2816 H       1  LIG1        0.0238
     66 H           0.0603    5.1455    6.5970 H       1  LIG1        0.0238
     67 H           0.2763    7.0742    8.7469 H       1  LIG1        0.0238
     68 H           1.5291    6.4337    8.0964 H       1  LIG1        0.0238
     69 H           1.4055    7.9781    8.1825 H       1  LIG1        0.0238
     70 H           5.8533    6.8784    3.8861 H       1  LIG1        0.0238
     71 H           5.8207    6.2500    5.3028 H       1  LIG1        0.0238
     72 H           6.8684    7.3400    4.9651 H       1  LIG1        0.0238
     73 H           5.0131    7.6035    7.2136 H       1  LIG1        0.0238
     74 H           6.1354    8.6137    6.8611 H       1  LIG1        0.0238
     75 H           4.6653    9.0971    6.9835 H       1  LIG1        0.0238
     76 H           6.2183    9.6747    4.6919 H       1  LIG1        0.0238
     77 H           5.2713    9.2155    3.5518 H       1  LIG1        0.0238
     78 H           4.7175   10.0687    4.7225 H       1  LIG1        0.0238
     79 H           3.7340    6.8494    1.0834 H       1  LIG1        0.0238
     80 H           3.5507    5.4041    1.6184 H       1  LIG1        0.0238
     81 H           3.0236    5.7836    0.2097 H       1  LIG1        0.0238
     82 H           1.3834    4.5437    2.2292 H       1  LIG1        0.0238
     83 H           0.8294    4.9062    0.8262 H       1  LIG1        0.0238
     84 H           0.0980    5.4017    2.1000 H       1  LIG1        0.0238
     85 H           1.1619    7.2361   -0.0839 H       1  LIG1        0.0238
     86 H           0.3475    7.7968    1.1106 H       1  LIG1        0.0238
     87 H           1.7738    8.3358    0.8239 H       1  LIG1        0.0238
     88 H          -5.2794   11.9200   -1.0698 H       1  LIG1        0.0624
     89 H          -6.5656   12.3478    2.7404 H       1  LIG1        0.0624
     90 H          -2.2183   10.3273   -0.9985 H       1  LIG1        0.0238
     91 H          -2.2898    9.1068   -0.0431 H       1  LIG1        0.0238
     92 H          -2.2658    8.8892   -1.5798 H       1  LIG1        0.0238
     93 H          -4.5235    7.7340    0.0034 H       1  LIG1        0.0238
     94 H          -4.3914    7.5841   -1.5345 H       1  LIG1        0.0238
     95 H          -5.6762    8.2029   -0.9225 H       1  LIG1        0.0238
     96 H          -4.1428    9.5055   -2.9988 H       1  LIG1        0.0238
     97 H          -5.4388   10.1122   -2.3981 H       1  LIG1        0.0238
     98 H          -4.1335   10.9484   -2.4287 H       1  LIG1        0.0238
     99 H          -6.1709   13.6601   -1.5980 H       1  LIG1        0.0238
    100 H          -7.5445   13.3919   -0.9282 H       1  LIG1        0.0238
    101 H          -7.0751   14.8492   -1.1820 H       1  LIG1        0.0238
    102 H          -7.9162   13.9429    1.3452 H       1  LIG1        0.0238
    103 H          -7.4984   15.3834    0.9441 H       1  LIG1        0.0238
    104 H          -6.8103   14.6825    2.1454 H       1  LIG1        0.0238
    105 H          -5.2910   15.7483    0.1122 H       1  LIG1        0.0238
    106 H          -4.6777   14.9290    1.2795 H       1  LIG1        0.0238
    107 H          -4.3496   14.5520   -0.1893 H       1  LIG1        0.0238
    108 H          -6.5148   12.2463    4.6217 H       1  LIG1        0.0238
    109 H          -7.5957   11.2940    4.0459 H       1  LIG1        0.0238
    110 H          -7.0161   11.0427    5.4637 H       1  LIG1        0.0238
    111 H          -7.0850    9.0198    3.4736 H       1  LIG1        0.0238
    112 H          -6.5102    8.8071    4.8982 H       1  LIG1        0.0238
    113 H          -5.6610    8.4325    3.6549 H       1  LIG1        0.0238
    114 H          -4.7203   10.2862    5.7584 H       1  LIG1        0.0238
    115 H          -3.7947   10.0203    4.5412 H       1  LIG1        0.0238
    116 H          -4.1983   11.4729    4.9073 H       1  LIG1        0.0238
@<TRIPOS>BOND
     1    96    40    1
     2    98    40    1
     3    97    40    1
     4    40    37    1
     5    99    42    1
     6    92    38    1
     7    94    39    1
     8   101    42    1
     9    88    33    1
    10    90    38    1
    11    42   100    1
    12    42    41    1
    13    95    39    1
    14    37    38    1
    15    37    39    1
    16    37    32    1
    17    38    91    1
    18    39    93    1
    19   107    44    1
    20    33    32   ar
    21    33    34   ar
    22    85    30    1
    23   105    44    1
    24    81    28    1
    25    32    31   ar
    26    41    44    1
    27    41    34    1
    28    41    43    1
    29    44   106    1
    30    34    35   ar
    31    30    87    1
    32    30    86    1
    33    30    27    1
    34    83    29    1
    35   103    43    1
    36    58    12    1
    37    79    28    1
    38    28    80    1
    39    28    27    1
    40    43   102    1
    41    43   104    1
    42    54    10    1
    43    31     2    1
    44    31    36   ar
    45    27    29    1
    46    27    18    1
    47    29    84    1
    48    29    82    1
    49    51     8    1
    50    12    57    1
    51    12    10    1
    52    12    11    1
    53    35    36   ar
    54    35    89    1
    55     2     4    1
    56    10     6    1
    57    10    11    1
    58    36    45    1
    59    50     8    1
    60     4     6    1
    61     4     3    2
    62     6     5    2
    63     8     7    1
    64     8     9    1
    65    60    17    1
    66    11    55    1
    67    11    56    1
    68     5     3    1
    69     5     7    1
    70    18    17   ar
    71    18    13   ar
    72     3     1    1
    73   111    47    1
    74    77    26    1
    75    17    16   ar
    76     1    13    1
    77     7     9    1
    78     7    49    1
    79   113    47    1
    80    52     9    1
    81     9    53    1
    82    70    24    1
    83    45    47    1
    84    45    46    1
    85    45    48    1
    86    47   112    1
    87   109    46    1
    88    13    14   ar
    89    26    76    1
    90    26    78    1
    91    26    23    1
    92   115    48    1
    93    46   108    1
    94    46   110    1
    95    24    72    1
    96    24    23    1
    97    24    71    1
    98    48   116    1
    99    48   114    1
   100    16    23    1
   101    16    15   ar
   102    23    25    1
   103    14    15   ar
   104    14    19    1
   105    64    21    1
   106    15    59    1
   107    61    20    1
   108    21    66    1
   109    21    19    1
   110    21    65    1
   111    19    20    1
   112    19    22    1
   113    20    62    1
   114    20    63    1
   115    25    74    1
   116    25    75    1
   117    25    73    1
   118    22    68    1
   119    22    69    1
   120    22    67    1
