@<TRIPOS>MOLECULE
?
 36 37 0 0 0
SMALL
GASTEIGER

@<TRIPOS>ATOM
      1 O           0.9405    3.5843    4.3292 O.3     1  LIG1       -0.4648
      2 O          -0.4316    5.2101    2.8000 O.3     1  LIG1       -0.4655
      3 C           1.0209    1.3085    3.6991 C.ar    1  LIG1        0.0566
      4 O          -1.2249    7.2003    1.8116 O.3     1  LIG1       -0.3472
      5 C          -0.3600    2.8583    2.3936 C.ar    1  LIG1        0.0663
      6 O          -0.0297    3.1817    6.4126 O.3     1  LIG1       -0.3472
      7 C           0.5322    2.5816    3.4803 C.ar    1  LIG1        0.1449
      8 C          -1.7921    4.2992    1.0396 C.ar    1  LIG1       -0.0191
      9 C          -0.8900    4.1496    2.0669 C.ar    1  LIG1        0.1348
     10 C          -0.7510    1.7558    1.5716 C.ar    1  LIG1       -0.0108
     11 C           0.6230    0.2453    2.8565 C.ar    1  LIG1       -0.0474
     12 O           2.3148   -0.0714    5.1128 O.2     1  LIG1       -0.2956
     13 C          -2.1782    3.1936    0.2713 C.ar    1  LIG1       -0.0577
     14 C           1.9437    1.0359    4.8089 C.2     1  LIG1        0.1537
     15 C          -0.0561    3.9958    5.2800 C.3     1  LIG1        0.1905
     16 C          -0.2309    0.4614    1.8366 C.ar    1  LIG1       -0.0530
     17 C          -1.2630    6.3671    2.9232 C.3     1  LIG1        0.1905
     18 C          -1.6573    1.9640    0.5092 C.ar    1  LIG1       -0.0537
     19 C           1.0004    3.5432    7.3315 C.3     1  LIG1        0.0402
     20 C           0.0563    7.7820    1.6022 C.3     1  LIG1        0.0402
     21 H          -0.9526    3.8972    4.8679 H       1  LIG1        0.1017
     22 H          -2.2115    6.0803    3.0411 H       1  LIG1        0.1017
     23 H          -0.9213    6.8044    3.7427 H       1  LIG1        0.1017
     24 H           0.1607    4.9257    5.5153 H       1  LIG1        0.1017
     25 H           0.6978    7.1088    1.2751 H       1  LIG1        0.0525
     26 H          -0.4941   -0.2317    1.2642 H       1  LIG1        0.0624
     27 H          -0.0490    8.4376    0.8950 H       1  LIG1        0.0525
     28 H          -2.8061    3.3405   -0.4866 H       1  LIG1        0.0619
     29 H           0.9961   -0.6061    3.0607 H       1  LIG1        0.0626
     30 H           1.8785    3.6243    6.8925 H       1  LIG1        0.0525
     31 H          -2.1286    5.1602    0.8276 H       1  LIG1        0.0654
     32 H           0.7773    4.4444    7.7722 H       1  LIG1        0.0525
     33 H           2.2640    1.7882    5.3371 H       1  LIG1        0.1083
     34 H           1.0589    2.8729    8.0307 H       1  LIG1        0.0525
     35 H          -1.9054    1.2273   -0.0456 H       1  LIG1        0.0624
     36 H           0.4174    8.1812    2.4264 H       1  LIG1        0.0525
@<TRIPOS>BOND
     1    28    13    1
     2    35    18    1
     3    13    18   ar
     4    13     8   ar
     5    18    10   ar
     6    31     8    1
     7    27    20    1
     8     8     9   ar
     9    26    16    1
    10    25    20    1
    11    10    16   ar
    12    10     5   ar
    13    20     4    1
    14    20    36    1
    15     4    17    1
    16    16    11   ar
    17     9     5   ar
    18     9     2    1
    19     5     7   ar
    20     2    17    1
    21    11    29    1
    22    11     3   ar
    23    17    22    1
    24    17    23    1
    25     7     3   ar
    26     7     1    1
    27     3    14    1
    28     1    15    1
    29    14    12    2
    30    14    33    1
    31    21    15    1
    32    15    24    1
    33    15     6    1
    34     6    19    1
    35    30    19    1
    36    19    32    1
    37    19    34    1
