@<TRIPOS>MOLECULE
2-chloro-2-(triethylamino)-1,3,2-benzodioxaborole
 36 37 0 0 0
SMALL
GASTEIGER

@<TRIPOS>ATOM
      1 N           5.5005    6.7604    7.5944 N.4     1  LIG1        1.0000
      2 CL          6.5033    5.2738    5.4054 Cl      1  LIG1        0.0000
      3 B           5.3915    6.6805    5.9566 B       1  LIG1        0.0000
      4 O           4.0094    6.4574    5.5507 O.3     1  LIG1        0.0000
      5 O           5.8148    7.9425    5.3747 O.3     1  LIG1        0.0000
      6 C           3.6601    7.5452    4.7862 C.ar    1  LIG1        0.0000
      7 C           4.7336    8.4227    4.6804 C.ar    1  LIG1        0.0000
      8 C           4.6395    9.6108    3.9806 C.ar    1  LIG1        0.0000
      9 H           5.3952   10.1695    3.9220 H       1  LIG1        0.0000
     10 C           3.3975    9.9066    3.3905 C.ar    1  LIG1        0.0000
     11 H           3.2820   10.7100    2.9253 H       1  LIG1        0.0000
     12 C           2.3293    9.0356    3.5035 C.ar    1  LIG1        0.0000
     13 H           1.4726    9.2446    3.1210 H       1  LIG1        0.0000
     14 C           2.4390    7.8172    4.2073 C.ar    1  LIG1        0.0000
     15 H           1.7170    7.2708    4.2818 H       1  LIG1        0.0000
     16 C           4.4537    7.7507    8.0521 C.3     1  LIG1        0.0000
     17 H           4.6820    8.5947    7.6182 H       1  LIG1        0.0000
     18 H           3.6386    7.4403    7.6889 H       1  LIG1        0.0000
     19 C           4.3535    7.9416    9.5616 C.3     1  LIG1        0.0000
     20 H           3.7839    8.6814    9.7486 H       1  LIG1        0.0000
     21 H           3.9226    7.1747   10.0045 H       1  LIG1        0.0000
     22 H           5.1839    8.1876    9.9985 H       1  LIG1        0.0000
     23 C           5.2803    5.4143    8.2648 C.3     1  LIG1        0.0000
     24 H           6.0424    4.8979    7.9901 H       1  LIG1        0.0000
     25 H           5.3556    5.5599    9.2427 H       1  LIG1        0.0000
     26 C           3.9616    4.7378    7.9782 C.3     1  LIG1        0.0000
     27 H           3.8500    4.5696    7.0235 H       1  LIG1        0.0000
     28 H           3.1896    5.2663    8.2505 H       1  LIG1        0.0000
     29 H           3.9688    3.9263    8.4839 H       1  LIG1        0.0000
     30 C           6.8950    7.1975    8.0339 C.3     1  LIG1        0.0000
     31 H           7.5150    6.6996    7.5670 H       1  LIG1        0.0000
     32 H           6.9141    6.9999    8.9867 H       1  LIG1        0.0000
     33 C           7.2597    8.6613    7.8416 C.3     1  LIG1        0.0000
     34 H           7.2311    8.8963    6.8985 H       1  LIG1        0.0000
     35 H           8.1358    8.7922    8.2325 H       1  LIG1        0.0000
     36 H           6.6763    9.2126    8.3318 H       1  LIG1        0.0000
@<TRIPOS>BOND
     1    11    10    1
     2    13    12    1
     3    10    12   ar
     4    10     8   ar
     5    12    14   ar
     6     9     8    1
     7     8     7   ar
     8    14    15    1
     9    14     6   ar
    10     7     6   ar
    11     7     5    1
    12     6     4    1
    13     5     3    1
    14     2     3    1
    15     4     3    1
    16     3     1    1
    17    34    33    1
    18    27    26    1
    19    31    30    1
    20     1    30    1
    21     1    16    1
    22     1    23    1
    23    17    16    1
    24    18    16    1
    25    33    30    1
    26    33    35    1
    27    33    36    1
    28    26    28    1
    29    26    23    1
    30    26    29    1
    31    24    23    1
    32    30    32    1
    33    16    19    1
    34    23    25    1
    35    19    20    1
    36    19    22    1
    37    19    21    1
