@<TRIPOS>MOLECULE
1-(5'-bromo-2'-pyridyl)-ortho-carborane
 33 37 0 0 0
SMALL
GASTEIGER

@<TRIPOS>ATOM
      1 BR          5.2675    0.8362    6.5794 Br      1  LIG1        0.0000
      2 N           5.3505   -2.1522    3.7383 N.ar    1  LIG1        0.0000
      3 C           5.1433   -2.2799    1.3304 C.3     1  LIG1        0.0000
      4 C           5.4921   -3.8768    1.4504 C.3     1  LIG1        0.0000
      5 H           5.7046   -4.0941    2.3283 H       1  LIG1        0.0000
      6 B           3.8391   -3.4262    1.3224 B       1  LIG1        0.0000
      7 H           3.0755   -3.5376    2.1347 H       1  LIG1        0.0000
      8 B           3.8714   -2.0207    0.2187 B       1  LIG1        0.0000
      9 H           3.1140   -1.1981    0.2983 H       1  LIG1        0.0000
     10 B           5.5677   -1.6810   -0.2066 B       1  LIG1        0.0000
     11 H           5.9184   -0.6358   -0.4052 H       1  LIG1        0.0000
     12 B           6.6126   -2.8659    0.6249 B       1  LIG1        0.0000
     13 H           7.6440   -2.6112    0.9807 H       1  LIG1        0.0000
     14 B           4.4936   -4.8262    0.4394 B       1  LIG1        0.0000
     15 H           4.1516   -5.8676    0.6652 H       1  LIG1        0.0000
     16 B           3.4531   -3.6527   -0.3941 B       1  LIG1        0.0000
     17 H           2.4170   -3.9074   -0.7327 H       1  LIG1        0.0000
     18 B           4.5258   -2.5753   -1.3425 B       1  LIG1        0.0000
     19 H           4.1940   -2.1244   -2.3121 H       1  LIG1        0.0000
     20 B           6.2230   -3.0904   -1.0926 B       1  LIG1        0.0000
     21 H           7.0020   -2.9866   -1.8908 H       1  LIG1        0.0000
     22 B           6.1937   -4.4885    0.0343 B       1  LIG1        0.0000
     23 H           6.9593   -5.3073    0.0000 H       1  LIG1        0.0000
     24 B           4.9032   -4.3111   -1.1944 B       1  LIG1        0.0000
     25 H           4.8156   -5.0092   -2.0652 H       1  LIG1        0.0000
     26 C           5.2436   -1.4569    2.5974 C.ar    1  LIG1        0.0000
     27 C           5.1741   -0.0792    2.5440 C.ar    1  LIG1        0.0000
     28 H           5.1149    0.3717    1.7094 H       1  LIG1        0.0000
     29 C           5.1927    0.6351    3.7323 C.ar    1  LIG1        0.0000
     30 H           5.1540    1.5848    3.7343 H       1  LIG1        0.0000
     31 C           5.2771   -0.0736    4.9156 C.ar    1  LIG1        0.0000
     32 C           5.3671   -1.4641    4.8873 C.ar    1  LIG1        0.0000
     33 H           5.4488   -1.9339    5.7078 H       1  LIG1        0.0000
@<TRIPOS>BOND
     1    19    18    1
     2    25    24    1
     3    21    20    1
     4    18    24    1
     5    18    10    1
     6    18     8    1
     7    24    16    1
     8    24    14    1
     9    20    12    1
    10    17    16    1
    11    11    10    1
    12    16    14    1
    13    16     6    1
    14    10     8    1
    15    10     3    1
    16    23    22    1
    17    22    12    1
    18    22     4    1
    19     8     9    1
    20     8     3    1
    21    14    15    1
    22    14     4    1
    23    12    13    1
    24     6     7    1
    25     3     4    1
    26     3    26    1
    27     4     5    1
    28    28    27    1
    29    27    26   ar
    30    27    29   ar
    31    26     2   ar
    32    29    30    1
    33    29    31   ar
    34     2    32   ar
    35    32    31   ar
    36    32    33    1
    37    31     1    1
