@<TRIPOS>MOLECULE
?
 73 76 0 0 0
SMALL
GASTEIGER

@<TRIPOS>ATOM
      1 P           7.9090    2.0937    3.0933 P.3     1  LIG1        0.1495
      2 P           4.6416   -4.7760    2.5292 P.3     1  LIG1        0.1495
      3 O           4.6512   -0.3921    3.1428 O.3     1  LIG1       -0.0803
      4 O           9.3042    1.8787    3.5469 O.2     1  LIG1       -0.3110
      5 O           5.3073   -5.6679    3.5058 O.2     1  LIG1       -0.3110
      6 N           5.7463   -1.0081    3.5413 N.4     1  LIG1       -0.1955
      7 C           6.8133   -0.2893    4.0061 C.2     1  LIG1        0.0549
      8 C           7.9468   -0.9529    4.4062 C.2     1  LIG1       -0.0506
      9 H           8.6606   -0.4590    4.7394 H       1  LIG1        0.0599
     10 C           8.0646   -2.3224    4.3323 C.3     1  LIG1        0.0230
     11 C           6.9554   -3.0157    3.8767 C.2     1  LIG1       -0.0506
     12 H           6.9931   -3.9434    3.8317 H       1  LIG1        0.0599
     13 C           5.8017   -2.3810    3.4896 C.2     1  LIG1        0.0549
     14 C           6.6824    1.1996    4.0760 C.3     1  LIG1        0.0512
     15 H           6.7618    1.4761    5.0031 H       1  LIG1        0.0412
     16 H           5.7962    1.4487    3.7712 H       1  LIG1        0.0412
     17 C           4.5369   -3.0529    3.0557 C.3     1  LIG1        0.0512
     18 H           4.1635   -2.5390    2.3233 H       1  LIG1        0.0412
     19 H           3.9064   -3.0041    3.7907 H       1  LIG1        0.0412
     20 C           7.6608    1.6464    1.3667 C.ar    1  LIG1        0.0162
     21 C           6.4930    1.0995    0.8591 C.ar    1  LIG1       -0.0510
     22 H           5.7775    0.9271    1.4285 H       1  LIG1        0.0625
     23 C           6.3861    0.8082   -0.4867 C.ar    1  LIG1       -0.0611
     24 H           5.6042    0.4315   -0.8212 H       1  LIG1        0.0618
     25 C           7.4340    1.0735   -1.3302 C.ar    1  LIG1       -0.0617
     26 H           7.3580    0.8860   -2.2368 H       1  LIG1        0.0618
     27 C           8.5893    1.6149   -0.8420 C.ar    1  LIG1       -0.0611
     28 H           9.2965    1.7963   -1.4177 H       1  LIG1        0.0618
     29 C           8.7067    1.8909    0.4975 C.ar    1  LIG1       -0.0510
     30 H           9.5012    2.2462    0.8234 H       1  LIG1        0.0625
     31 C           7.4265    3.8249    3.2551 C.ar    1  LIG1        0.0162
     32 C           8.2294    4.6647    4.0012 C.ar    1  LIG1       -0.0510
     33 H           9.0042    4.3368    4.3980 H       1  LIG1        0.0625
     34 C           7.8816    5.9959    4.1594 C.ar    1  LIG1       -0.0611
     35 H           8.4195    6.5541    4.6724 H       1  LIG1        0.0618
     36 C           6.7603    6.4946    3.5720 C.ar    1  LIG1       -0.0617
     37 H           6.5419    7.3928    3.6740 H       1  LIG1        0.0618
     38 C           5.9560    5.6711    2.8309 C.ar    1  LIG1       -0.0611
     39 H           5.1855    6.0097    2.4356 H       1  LIG1        0.0618
     40 C           6.2863    4.3353    2.6690 C.ar    1  LIG1       -0.0510
     41 H           5.7378    3.7803    2.1633 H       1  LIG1        0.0625
     42 C           2.9376   -5.2503    2.2383 C.ar    1  LIG1        0.0162
     43 C           2.2924   -5.9990    3.2028 C.ar    1  LIG1       -0.0510
     44 H           2.7476   -6.2384    3.9787 H       1  LIG1        0.0625
     45 C           0.9913   -6.3955    3.0343 C.ar    1  LIG1       -0.0611
     46 H           0.5703   -6.9002    3.6934 H       1  LIG1        0.0618
     47 C           0.3149   -6.0508    1.9083 C.ar    1  LIG1       -0.0617
     48 H          -0.5649   -6.3314    1.7916 H       1  LIG1        0.0618
     49 C           0.9222   -5.2945    0.9466 C.ar    1  LIG1       -0.0611
     50 H           0.4533   -5.0520    0.1815 H       1  LIG1        0.0618
     51 C           2.2317   -4.8904    1.1113 C.ar    1  LIG1       -0.0510
     52 H           2.6397   -4.3719    0.4560 H       1  LIG1        0.0625
     53 C           5.4351   -4.8035    0.9178 C.ar    1  LIG1        0.0162
     54 C           5.6093   -3.7055    0.1126 C.ar    1  LIG1       -0.0510
     55 H           5.3254   -2.8699    0.4041 H       1  LIG1        0.0625
     56 C           6.2128   -3.8367   -1.1454 C.ar    1  LIG1       -0.0611
     57 H           6.3301   -3.0956   -1.6944 H       1  LIG1        0.0618
     58 C           6.6277   -5.0810   -1.5539 C.ar    1  LIG1       -0.0617
     59 H           7.0351   -5.1801   -2.3838 H       1  LIG1        0.0618
     60 C           6.4512   -6.1667   -0.7629 C.ar    1  LIG1       -0.0611
     61 H           6.7354   -7.0009   -1.0568 H       1  LIG1        0.0618
     62 C           5.8621   -6.0463    0.4595 C.ar    1  LIG1       -0.0510
     63 H           5.7437   -6.8011    0.9920 H       1  LIG1        0.0625
     64 C           9.3359   -3.0437    4.7459 C.3     1  LIG1       -0.0421
     65 H           9.7157   -3.4783    3.9679 H       1  LIG1        0.0274
     66 H           9.9781   -2.3880    5.0593 H       1  LIG1        0.0274
     67 C           9.1360   -4.0425    5.7919 C.3     1  LIG1       -0.0642
     68 H           9.9745   -4.4604    5.9994 H       1  LIG1        0.0230
     69 H           8.5147   -4.7059    5.4850 H       1  LIG1        0.0230
     70 H           8.7858   -3.6171    6.5786 H       1  LIG1        0.0230
     71 O           2.2835    0.0945    4.6026 O.3     2  HOH2       -0.4105
     72 H           3.1055    0.2287    4.1624 H       0  HOH0        0.2052
     73 H           1.7359    0.7472    4.1235 H       0  HOH0        0.2052
@<TRIPOS>BOND
     1    59    58    1
     2    26    25    1
     3    57    56    1
     4    58    56   ar
     5    58    60   ar
     6    28    27    1
     7    25    27   ar
     8    25    23   ar
     9    56    54   ar
    10    61    60    1
    11    27    29   ar
    12    24    23    1
    13    60    62   ar
    14    23    21   ar
    15    54    55    1
    16    54    53   ar
    17    50    49    1
    18    52    51    1
    19    62    53   ar
    20    62    63    1
    21    29    30    1
    22    29    20   ar
    23    21    20   ar
    24    21    22    1
    25    53     2    1
    26    49    51   ar
    27    49    47   ar
    28    51    42   ar
    29    20     1    1
    30    48    47    1
    31    47    45   ar
    32    41    40    1
    33    42     2    1
    34    42    43   ar
    35    18    17    1
    36    39    38    1
    37     2    17    1
    38     2     5    2
    39    40    38   ar
    40    40    31   ar
    41    38    36   ar
    42    45    43   ar
    43    45    46    1
    44    17    13    1
    45    17    19    1
    46     1    31    1
    47     1     4    2
    48     1    14    1
    49     3     6    1
    50    43    44    1
    51    31    32   ar
    52    13     6    1
    53    13    11    2
    54     6     7    1
    55    36    37    1
    56    36    34   ar
    57    16    14    1
    58    12    11    1
    59    11    10    1
    60    65    64    1
    61    32    34   ar
    62    32    33    1
    63     7    14    1
    64     7     8    2
    65    14    15    1
    66    73    71    1
    67    34    35    1
    68    72    71    1
    69    10     8    1
    70    10    64    1
    71     8     9    1
    72    64    66    1
    73    64    67    1
    74    69    67    1
    75    67    68    1
    76    67    70    1
