@<TRIPOS>MOLECULE
C12 H28 N6 O2 S4
 52 48 0 0 0
SMALL
GASTEIGER

@<TRIPOS>ATOM
      1 C           8.3835   -0.2888   -1.6107 C.3     1  LIG1       -0.0191
      2 C           8.8026    0.1518   -0.2400 C.2     1  LIG1        0.0786
      3 N           8.0692    0.8269    0.5851 N.2     1  LIG1       -0.1841
      4 N           6.7798    1.1036    0.1883 N.am    1  LIG1       -0.2181
      5 C           5.9624    1.8014    1.0355 C.2     1  LIG1        0.1497
      6 S           4.3099    1.8891    0.6830 S.2     1  LIG1       -0.0172
      7 N           6.5255    2.3856    2.0790 N.am    1  LIG1       -0.3284
      8 C           5.7606    3.0732    3.1074 C.3     1  LIG1       -0.0008
      9 C           6.4619    6.1799    1.6234 C.3     2  LIG2       -0.0191
     10 C           5.3740    5.8963    0.6301 C.2     2  LIG2        0.0786
     11 N           4.1396    6.2558    0.7285 N.2     2  LIG2       -0.1841
     12 N           3.7387    6.9027    1.8763 N.am    2  LIG2       -0.2181
     13 C           2.4559    7.3637    1.9200 C.2     2  LIG2        0.1497
     14 S           1.8636    8.0058    3.3610 S.2     2  LIG2       -0.0172
     15 N           1.7648    7.2714    0.7856 N.am    2  LIG2       -0.3284
     16 C           0.3911    7.7111    0.6305 C.3     2  LIG2       -0.0008
     17 O           9.1264    3.0449    3.0003 O.3     3  LIG3       -0.1626
     18 S           9.8038    4.3932    3.0666 S.3     3  LIG3       -0.0495
     19 C          11.4565    4.0545    3.6328 C.3     3  LIG3       -0.0004
     20 C           9.1621    5.1685    4.5275 C.3     3  LIG3       -0.0004
     21 O           4.8244    6.2056    4.4037 O.3     4  LIG4       -0.1626
     22 S           4.6927    7.1234    5.5916 S.3     4  LIG4       -0.0495
     23 C           6.0730    6.7127    6.6499 C.3     4  LIG4       -0.0004
     24 C           3.4079    6.4336    6.6145 C.3     4  LIG4       -0.0004
     25 H           6.3993    0.6303   -0.3634 H       1  LIG1        0.1762
     26 H           7.3419    2.3686    2.1508 H       1  LIG1        0.1474
     27 H           4.1523    6.8169    2.6320 H       2  LIG2        0.1762
     28 H           2.1824    6.9092    0.0786 H       2  LIG2        0.1474
     29 H           7.4376   -0.0071   -1.7766 H       1  LIG1        0.0294
     30 H           8.9812    0.1312   -2.2932 H       1  LIG1        0.0294
     31 H           8.4504   -1.2842   -1.6755 H       1  LIG1        0.0294
     32 H           6.3841    3.4384    3.7978 H       1  LIG1        0.0426
     33 H           5.2448    3.8227    2.6929 H       1  LIG1        0.0426
     34 H           5.1270    2.4300    3.5376 H       1  LIG1        0.0426
     35 H           6.0758    6.6544    2.4130 H       2  LIG2        0.0294
     36 H           7.1605    6.7543    1.1972 H       2  LIG2        0.0294
     37 H           6.8736    5.3184    1.9200 H       2  LIG2        0.0294
     38 H           0.0902    7.5403   -0.3074 H       2  LIG2        0.0426
     39 H           0.3307    8.6907    0.8269 H       2  LIG2        0.0426
     40 H          -0.1937    7.2072    1.2659 H       2  LIG2        0.0426
     41 H          11.9674    4.9123    3.7016 H       3  LIG3        0.0355
     42 H          11.4172    3.6179    4.5314 H       3  LIG3        0.0355
     43 H          11.9126    3.4449    2.9856 H       3  LIG3        0.0355
     44 H           9.5736    6.0737    4.6316 H       3  LIG3        0.0355
     45 H           9.3818    4.6076    5.3260 H       3  LIG3        0.0355
     46 H           8.1698    5.2603    4.4470 H       3  LIG3        0.0355
     47 H           6.0497    7.2879    7.4670 H       4  LIG4        0.0355
     48 H           6.9286    6.8674    6.1568 H       4  LIG4        0.0355
     49 H           6.0119    5.7512    6.9180 H       4  LIG4        0.0355
     50 H           3.2806    7.0100    7.4218 H       4  LIG4        0.0355
     51 H           3.6689    5.5118    6.9003 H       4  LIG4        0.0355
     52 H           2.5542    6.3944    6.0959 H       4  LIG4        0.0355
@<TRIPOS>BOND
     1    30     1    1
     2    29     1    1
     3    31     1    1
     4     1     2    1
     5    25     4    1
     6    38    16    1
     7     2     3    2
     8    28    15    1
     9     4     3    1
    10     4     5    1
    11    10    11    2
    12    10     9    1
    13    16    15    1
    14    16    39    1
    15    16    40    1
    16     6     5    2
    17    11    12    1
    18    15    13    1
    19     5     7    1
    20    36     9    1
    21     9    37    1
    22     9    35    1
    23    12    13    1
    24    12    27    1
    25    13    14    2
    26     7    26    1
    27     7     8    1
    28    33     8    1
    29    43    19    1
    30    17    18    1
    31    18    19    1
    32    18    20    1
    33     8    34    1
    34     8    32    1
    35    19    41    1
    36    19    42    1
    37    21    22    1
    38    46    20    1
    39    20    44    1
    40    20    45    1
    41    22    24    1
    42    22    23    1
    43    52    24    1
    44    48    23    1
    45    24    51    1
    46    24    50    1
    47    23    49    1
    48    23    47    1
