@<TRIPOS>MOLECULE
?
 39 40 0 0 0
SMALL
GASTEIGER

@<TRIPOS>ATOM
      1 S           8.2549   -1.0685   10.1350 S.3     1  LIG1        0.2050
      2 P           8.1032   -0.7750   12.0439 P.3     1  LIG1        0.3834
      3 C           9.6106   -1.0539   13.0054 C.ar    1  LIG1        0.1742
      4 C           9.4116   -1.7255   14.1851 C.ar    1  LIG1       -0.0127
      5 H           8.5250   -1.8074   14.5180 H       1  LIG1        0.0659
      6 C          10.4578   -2.2955   14.9203 C.ar    1  LIG1       -0.0573
      7 H          10.2946   -2.7016   15.7630 H       1  LIG1        0.0619
      8 C          11.7054   -2.2533   14.4052 C.ar    1  LIG1       -0.0538
      9 H          12.4062   -2.7049   14.8605 H       1  LIG1        0.0624
     10 C          12.0042   -1.5568   13.2024 C.ar    1  LIG1       -0.0132
     11 C          13.2978   -1.5568   12.6819 C.ar    1  LIG1       -0.0539
     12 H          13.9733   -2.0655   13.1141 H       1  LIG1        0.0624
     13 C          13.6138   -0.8413   11.5606 C.ar    1  LIG1       -0.0604
     14 H          14.4767   -0.9091   11.1706 H       1  LIG1        0.0618
     15 C          12.6352   -0.0033   10.9979 C.ar    1  LIG1       -0.0491
     16 H          12.8734    0.5542   10.2654 H       1  LIG1        0.0625
     17 C          11.3504    0.0372   11.4668 C.ar    1  LIG1        0.0413
     18 C          10.9414   -0.8313   12.5310 C.ar    1  LIG1        0.0423
     19 P          10.2753    1.4168   10.8478 P.3     1  LIG1        0.2067
     20 O           7.5740    0.6163   12.5582 O.3     1  LIG1       -0.1896
     21 C           6.4835    1.3119   11.8583 C.3     1  LIG1        0.0856
     22 H           6.2875    2.1557   12.3149 H       1  LIG1        0.0568
     23 H           5.6836    0.7461   11.8569 H       1  LIG1        0.0568
     24 H           6.7549    1.4964   10.9341 H       1  LIG1        0.0568
     25 O           6.9882   -1.7206   12.6968 O.3     1  LIG1       -0.1896
     26 C           6.8835   -3.1152   12.3598 C.3     1  LIG1        0.0856
     27 H           6.1464   -3.5189   12.8626 H       1  LIG1        0.0568
     28 H           7.7209   -3.5694   12.5867 H       1  LIG1        0.0568
     29 H           6.7117   -3.2062   11.3989 H       1  LIG1        0.0568
     30 O          10.7295    1.3359    9.2759 O.3     1  LIG1       -0.3330
     31 C           9.8717    1.9166    8.2879 C.3     1  LIG1        0.0434
     32 H          10.2664    1.7917    7.3990 H       1  LIG1        0.0528
     33 H           9.7677    2.8745    8.4673 H       1  LIG1        0.0528
     34 H           8.9946    1.4815    8.3191 H       1  LIG1        0.0528
     35 O          11.2778    2.5949   11.4043 O.3     1  LIG1       -0.3330
     36 C          10.7667    3.9350   11.3676 C.3     1  LIG1        0.0434
     37 H          11.4410    4.5521   11.7224 H       1  LIG1        0.0528
     38 H           9.9540    3.9896   11.9140 H       1  LIG1        0.0528
     39 H          10.5552    4.1790   10.4421 H       1  LIG1        0.0528
@<TRIPOS>BOND
     1    32    31    1
     2    31    34    1
     3    31    33    1
     4    31    30    1
     5    30    19    1
     6     1     2    1
     7    16    15    1
     8    39    36    1
     9    19    35    1
    10    19    17    1
    11    24    21    1
    12    15    17   ar
    13    15    13   ar
    14    14    13    1
    15    36    35    1
    16    36    37    1
    17    36    38    1
    18    29    26    1
    19    17    18   ar
    20    13    11   ar
    21    23    21    1
    22    21    22    1
    23    21    20    1
    24     2    20    1
    25     2    25    1
    26     2     3    1
    27    26    28    1
    28    26    25    1
    29    26    27    1
    30    18     3   ar
    31    18    10   ar
    32    11    12    1
    33    11    10   ar
    34     3     4   ar
    35    10     8   ar
    36     4     5    1
    37     4     6   ar
    38     8     9    1
    39     8     6   ar
    40     6     7    1
