@<TRIPOS>MOLECULE
?
 34 36 0 0 0
SMALL
GASTEIGER

@<TRIPOS>ATOM
      1 C           5.5745   -1.6494    1.4506 C.3     1  LIG1        0.0389
      2 H           5.5691   -1.5032    0.4718 H       1  LIG1        0.0461
      3 H           4.6673   -1.9543    1.7069 H       1  LIG1        0.0461
      4 C           6.4986   -2.7226    1.7337 C.3     1  LIG1       -0.0091
      5 H           5.9742   -3.4751    2.1041 H       1  LIG1        0.0302
      6 H           6.8722   -3.0275    0.8689 H       1  LIG1        0.0302
      7 C           7.5749   -2.4935    2.5998 C.3     1  LIG1        0.0992
      8 H           7.3173   -2.8548    3.4857 H       1  LIG1        0.0606
      9 H           8.3306   -3.0433    2.2759 H       1  LIG1        0.0606
     10 C           7.4879    0.4564    7.2699 C.3     1  LIG1        0.0387
     11 H           7.6587   -0.4494    6.9065 H       1  LIG1        0.0463
     12 H           6.5122    0.5815    7.3783 H       1  LIG1        0.0463
     13 C           8.2068    0.6573    8.5796 C.3     1  LIG1       -0.0355
     14 H           7.6180    0.4265    9.3416 H       1  LIG1        0.0279
     15 H           9.0194    0.0952    8.6247 H       1  LIG1        0.0279
     16 C           8.5575    2.0864    8.6050 C.3     1  LIG1       -0.0355
     17 H           9.4048    2.2204    9.1007 H       1  LIG1        0.0279
     18 H           7.8451    2.6045    9.0585 H       1  LIG1        0.0279
     19 C           8.7121    2.5534    7.2009 C.3     1  LIG1        0.0387
     20 H           8.2645    3.4257    7.0685 H       1  LIG1        0.0463
     21 H           9.6688    2.6433    6.9629 H       1  LIG1        0.0463
     22 N           6.8231    0.5225    4.2907 N.3     1  LIG1        0.2085
     23 N           8.3844    2.7517    4.1024 N.3     1  LIG1        0.1939
     24 N           7.9920    1.1320    1.9679 N.3     1  LIG1        0.2076
     25 N           5.8044   -0.4131    2.0689 N.3     1  LIG1       -0.1262
     26 N           8.0621    1.4996    6.3856 N.3     1  LIG1       -0.1236
     27 O           8.0513   -1.2364    2.8026 O.3     1  LIG1       -0.1722
     28 P           7.1606    0.0573    2.8092 P.3     1  LIG1        0.4968
     29 P           7.4028    1.8285    4.9526 P.3     1  LIG1        0.4626
     30 P           8.4876    2.4859    2.5588 P.3     1  LIG1        0.4841
     31 CL          5.7683    3.0049    5.3702 Cl      1  LIG1        0.1642
     32 CL          7.5848    3.9893    1.5686 Cl      1  LIG1        0.1627
     33 CL         10.3741    2.8132    1.9958 Cl      1  LIG1        0.1627
     34 H           5.0210    0.0881    2.2252 H       1  LIG1        0.1726
@<TRIPOS>BOND
     1     2     1    1
     2     6     4    1
     3     1     3    1
     4     1     4    1
     5     1    25    1
     6    32    30    1
     7     4     5    1
     8     4     7    1
     9    24    30    1
    10    24    28    1
    11    33    30    1
    12    25    34    1
    13    25    28    1
    14     9     7    1
    15    30    23    1
    16     7    27    1
    17     7     8    1
    18    27    28    1
    19    28    22    1
    20    23    29    1
    21    22    29    1
    22    29    31    1
    23    29    26    1
    24    26    19    1
    25    26    10    1
    26    11    10    1
    27    21    19    1
    28    20    19    1
    29    19    16    1
    30    10    12    1
    31    10    13    1
    32    13    16    1
    33    13    15    1
    34    13    14    1
    35    16    18    1
    36    16    17    1
