@<TRIPOS>MOLECULE
?
 47 50 0 0 0
SMALL
GASTEIGER

@<TRIPOS>ATOM
      1 H           1.4788    7.4391    9.6331 H       1  LIG1        0.1980
      2 H          -2.4662    9.1885   13.7548 H       1  LIG1        0.1980
      3 C           2.6465    8.4170   10.7506 C.ar    1  LIG1        0.0682
      4 C           3.6166    8.5427    9.7697 C.ar    1  LIG1       -0.0375
      5 H           3.4498    8.2141    8.8947 H       1  LIG1        0.0637
      6 C           4.8285    9.1460   10.0629 C.ar    1  LIG1       -0.0599
      7 H           5.4896    9.2212    9.3846 H       1  LIG1        0.0618
      8 C           5.0894    9.6399   11.3324 C.ar    1  LIG1       -0.0616
      9 H           5.9189   10.0600   11.5291 H       1  LIG1        0.0618
     10 C           4.1147    9.5073   12.3051 C.ar    1  LIG1       -0.0599
     11 H           4.2848    9.8376   13.1789 H       1  LIG1        0.0618
     12 C           2.8925    8.9024   12.0354 C.ar    1  LIG1       -0.0375
     13 H           2.2335    8.8207   12.7161 H       1  LIG1        0.0637
     14 C          -3.6045    9.0823   12.2050 C.ar    1  LIG1        0.0682
     15 C          -3.6548    9.3458   10.8366 C.ar    1  LIG1       -0.0375
     16 H          -2.8795    9.6480   10.3773 H       1  LIG1        0.0637
     17 C          -4.8567    9.1611   10.1489 C.ar    1  LIG1       -0.0599
     18 H          -4.9001    9.3389    9.2162 H       1  LIG1        0.0618
     19 C          -5.9822    8.7217   10.8189 C.ar    1  LIG1       -0.0616
     20 H          -6.7963    8.5967   10.3455 H       1  LIG1        0.0618
     21 C          -5.9282    8.4675   12.1603 C.ar    1  LIG1       -0.0599
     22 H          -6.7093    8.1716   12.6148 H       1  LIG1        0.0618
     23 C          -4.7403    8.6379   12.8692 C.ar    1  LIG1       -0.0375
     24 H          -4.7083    8.4512   13.8007 H       1  LIG1        0.0637
     25 N          -1.3866    4.9124   11.8623 N.3     1  LIG1        0.1930
     26 N           0.1077    7.0333   12.6518 N.3     1  LIG1        0.2161
     27 N          -1.0258    7.0207   10.1847 N.3     1  LIG1        0.2161
     28 N           1.4320    7.7641   10.4044 N.pl3   1  LIG1       -0.1520
     29 N          -2.4028    9.2513   12.9599 N.pl3   1  LIG1       -0.1520
     30 N          -0.1732   10.3240   13.7854 N.3     1  LIG1        0.2161
     31 N          -0.1466   13.0265   13.4015 N.3     1  LIG1        0.1930
     32 N          -1.4874   11.4257   11.6766 N.3     1  LIG1        0.2161
     33 O          -0.3317    9.2276   11.4123 O.3     1  LIG1        0.0442
     34 P          -1.7741    5.6617   10.5305 P.3     1  LIG1        0.4844
     35 P          -0.5732    5.6495   12.9950 P.3     1  LIG1        0.4844
     36 P           0.0224    7.6788   11.2041 P.3     1  LIG1        0.5625
     37 P          -1.1006   10.1241   12.4978 P.3     1  LIG1        0.5625
     38 P           0.3539   11.7649   14.2105 P.3     1  LIG1        0.4844
     39 P          -1.0097   12.8643   12.0805 P.3     1  LIG1        0.4844
     40 CL         -1.5283    4.3938    9.0022 Cl      1  LIG1        0.1627
     41 CL         -3.7488    5.9310   10.4873 Cl      1  LIG1        0.1627
     42 CL         -1.7569    5.8671   14.5844 Cl      1  LIG1        0.1627
     43 CL          0.7844    4.3667   13.6802 Cl      1  LIG1        0.1627
     44 CL         -0.0391   12.0288   16.1477 Cl      1  LIG1        0.1627
     45 CL          2.3480   11.7894   14.2302 Cl      1  LIG1        0.1627
     46 CL         -2.5712   14.0974   12.2068 Cl      1  LIG1        0.1627
     47 CL         -0.0062   13.6719   10.5471 Cl      1  LIG1        0.1627
@<TRIPOS>BOND
     1     5     4    1
     2    40    34    1
     3    18    17    1
     4     7     6    1
     5     1    28    1
     6     4     6   ar
     7     4     3   ar
     8     6     8   ar
     9    17    19   ar
    10    17    15   ar
    11    27    34    1
    12    27    36    1
    13    20    19    1
    14    16    15    1
    15    28     3    1
    16    28    36    1
    17    41    34    1
    18    34    25    1
    19    47    39    1
    20     3    12   ar
    21    19    21   ar
    22    15    14   ar
    23    36    33    1
    24    36    26    1
    25     8     9    1
    26     8    10   ar
    27    33    37    1
    28    32    39    1
    29    32    37    1
    30    25    35    1
    31    12    10   ar
    32    12    13    1
    33    39    46    1
    34    39    31    1
    35    21    22    1
    36    21    23   ar
    37    14    23   ar
    38    14    29    1
    39    10    11    1
    40    37    29    1
    41    37    30    1
    42    26    35    1
    43    23    24    1
    44    29     2    1
    45    35    43    1
    46    35    42    1
    47    31    38    1
    48    30    38    1
    49    38    45    1
    50    38    44    1
