@<TRIPOS>MOLECULE
?
 42 42 0 0 0
SMALL
GASTEIGER

@<TRIPOS>ATOM
      1 C           9.7631    2.7423   -0.2767 C.3     1  LIG1        0.0269
      2 H           9.1858    2.9942   -1.0523 H       1  LIG1        0.0476
      3 C          10.4419    1.3939   -0.5935 C.3     1  LIG1       -0.0480
      4 H          11.0202    1.4957   -1.3786 H       1  LIG1        0.0245
      5 H           9.7571    0.7180   -0.7803 H       1  LIG1        0.0245
      6 H          10.9816    1.1100    0.1726 H       1  LIG1        0.0245
      7 C           8.8875    2.6575    0.9601 C.3     1  LIG1       -0.0480
      8 H           9.4211    2.3378    1.7167 H       1  LIG1        0.0245
      9 H           8.1494    2.0342    0.7945 H       1  LIG1        0.0245
     10 H           8.5266    3.5451    1.1658 H       1  LIG1        0.0245
     11 C           7.7451   -1.7288   -0.2956 C.3     2  LIG2        0.0269
     12 H           8.3356   -1.4466   -1.0499 H       2  LIG2        0.0476
     13 C           8.5900   -1.8404    0.9459 C.3     2  LIG2       -0.0480
     14 H           8.9232   -0.9537    1.1942 H       2  LIG2        0.0245
     15 H           9.3470   -2.4378    0.7732 H       2  LIG2        0.0245
     16 H           8.0483   -2.2030    1.6789 H       2  LIG2        0.0245
     17 C           7.0969   -3.0567   -0.6668 C.3     2  LIG2       -0.0480
     18 H           6.5758   -3.3898    0.0946 H       2  LIG2        0.0245
     19 H           7.7938   -3.7068   -0.8938 H       2  LIG2        0.0245
     20 H           6.5063   -2.9263   -1.4377 H       2  LIG2        0.0245
     21 N          11.7864    3.5808    4.3628 N.3     1  LIG1        0.1853
     22 N          12.5921    3.0236    1.8255 N.3     1  LIG1        0.0401
     23 N          10.9856    5.1230    2.2937 N.3     1  LIG1        0.0401
     24 N          10.7846    3.7996   -0.0958 N.3     1  LIG1       -0.1750
     25 N           4.8926   -1.4457    1.7971 N.3     2  LIG2        0.0401
     26 N           5.5816   -0.8698    4.3675 N.3     2  LIG2        0.1853
     27 N           6.5394    0.6072    2.3079 N.3     2  LIG2        0.0401
     28 N           6.7081   -0.6840   -0.1014 N.3     2  LIG2       -0.1750
     29 P          10.9129    4.7768    3.8208 P.3     1  LIG1        0.4424
     30 P          12.5533    2.6425    3.3498 P.3     1  LIG1        0.4424
     31 P          11.7345    4.2289    1.2093 P.3     1  LIG1        0.2617
     32 P           5.7761   -0.2504    1.2050 P.3     2  LIG2        0.2617
     33 P           4.8200   -1.7770    3.3316 P.3     2  LIG2        0.4424
     34 P           6.5071    0.3045    3.8449 P.3     2  LIG2        0.4424
     35 CL          9.0119    4.4595    4.3652 Cl      1  LIG1        0.1593
     36 CL         11.3412    6.4039    4.8863 Cl      1  LIG1        0.1593
     37 CL         11.8354    0.7775    3.5257 Cl      1  LIG1        0.1593
     38 CL         14.4173    2.3977    4.0046 Cl      1  LIG1        0.1593
     39 CL          5.4130   -3.6692    3.6038 Cl      2  LIG2        0.1593
     40 CL          2.9068   -1.8878    3.8712 Cl      2  LIG2        0.1593
     41 CL          6.0151    1.9839    4.8031 Cl      2  LIG2        0.1593
     42 CL          8.3590   -0.0045    4.5264 Cl      2  LIG2        0.1593
@<TRIPOS>BOND
     1    20    17    1
     2     4     3    1
     3     2     1    1
     4    12    11    1
     5    19    17    1
     6     5     3    1
     7    17    11    1
     8    17    18    1
     9     3     1    1
    10     3     6    1
    11    11    28    1
    12    11    13    1
    13     1    24    1
    14     1     7    1
    15    28    32    1
    16    24    31    1
    17    15    13    1
    18     9     7    1
    19    13    14    1
    20    13    16    1
    21     7    10    1
    22     7     8    1
    23    32    25    1
    24    32    27    1
    25    31    22    1
    26    31    23    1
    27    25    33    1
    28    22    30    1
    29    23    29    1
    30    27    34    1
    31    33    39    1
    32    33    40    1
    33    33    26    1
    34    30    37    1
    35    30    38    1
    36    30    21    1
    37    29    21    1
    38    29    35    1
    39    29    36    1
    40    34    26    1
    41    34    42    1
    42    34    41    1
