@<TRIPOS>MOLECULE
?
 53 57 0 0 0
SMALL
GASTEIGER

@<TRIPOS>ATOM
      1 P           5.1229   11.0337    4.0450 P.3     1  LIG1       -0.0131
      2 P           3.9744    9.6609    2.7114 P.3     1  LIG1       -0.0683
      3 O           7.2165    9.3317    3.2246 O.3     1  LIG1       -0.3375
      4 O           6.6116   10.7202    6.2408 O.3     1  LIG1       -0.3375
      5 O           8.2799    9.3555    5.3173 O.3     1  LIG1       -0.3177
      6 C           6.9121   11.2526    1.8780 C.3     1  LIG1       -0.0311
      7 H           7.8189   11.2074    1.5670 H       1  LIG1        0.0261
      8 H           6.6122   12.1644    1.8571 H       1  LIG1        0.0261
      9 H           6.3522   10.7181    1.3107 H       1  LIG1        0.0261
     10 C           6.8386   10.7288    3.3008 C.3     1  LIG1        0.1002
     11 C           7.8208   11.4367    4.2368 C.3     1  LIG1        0.0346
     12 H           8.7033   11.4552    3.8331 H       1  LIG1        0.0349
     13 H           7.5353   12.3523    4.3804 H       1  LIG1        0.0349
     14 C           7.8798   10.7000    5.5701 C.3     1  LIG1        0.1745
     15 C           8.8811   11.2797    6.5386 C.3     1  LIG1       -0.0103
     16 H           8.8686   10.7728    7.3536 H       1  LIG1        0.0281
     17 H           8.6542   12.1933    6.7256 H       1  LIG1        0.0281
     18 H           9.7594   11.2415    6.1523 H       1  LIG1        0.0281
     19 C           7.9375    7.3062    4.2214 C.3     1  LIG1       -0.0103
     20 H           7.3190    6.7827    3.7063 H       1  LIG1        0.0281
     21 H           8.1116    6.8663    5.0561 H       1  LIG1        0.0281
     22 H           8.7577    7.4042    3.7333 H       1  LIG1        0.0281
     23 C           7.3454    8.6641    4.4845 C.3     1  LIG1        0.1745
     24 C           6.0102    8.6003    5.2172 C.3     1  LIG1        0.0346
     25 H           5.3494    8.1691    4.6522 H       1  LIG1        0.0349
     26 H           6.1072    8.0711    6.0238 H       1  LIG1        0.0349
     27 C           5.5344   10.0018    5.5806 C.3     1  LIG1        0.1002
     28 C           4.4142    9.9908    6.6022 C.3     1  LIG1       -0.0311
     29 H           4.7223    9.5742    7.4100 H       1  LIG1        0.0261
     30 H           3.6671    9.4988    6.2531 H       1  LIG1        0.0261
     31 H           4.1435   10.8925    6.7899 H       1  LIG1        0.0261
     32 C           2.3610    9.3688    3.6029 C.3     1  LIG1       -0.0162
     33 H           2.5471    8.7545    4.3430 H       1  LIG1        0.0352
     34 C           1.4587    8.6123    2.5965 C.3     1  LIG1       -0.0460
     35 H           1.8894    7.7717    2.3782 H       1  LIG1        0.0271
     36 H           0.6224    8.4014    3.0410 H       1  LIG1        0.0271
     37 C           1.1292    9.3384    1.2772 C.3     1  LIG1       -0.0519
     38 H           0.7612    8.6915    0.6558 H       1  LIG1        0.0266
     39 H           0.4401    9.9975    1.4540 H       1  LIG1        0.0266
     40 C           2.3105   10.0442    0.5980 C.3     1  LIG1       -0.0460
     41 H           1.9623   10.6210   -0.0999 H       1  LIG1        0.0271
     42 H           2.8644    9.3719    0.1702 H       1  LIG1        0.0271
     43 C           3.2050   10.8917    1.5279 C.3     1  LIG1       -0.0162
     44 H           3.9288   11.2611    0.9798 H       1  LIG1        0.0352
     45 C           2.4935   12.0757    2.2084 C.3     1  LIG1       -0.0460
     46 H           3.1648   12.6073    2.6657 H       1  LIG1        0.0271
     47 H           2.1074   12.6341    1.5148 H       1  LIG1        0.0271
     48 C           1.3885   11.7378    3.2144 C.3     1  LIG1       -0.0519
     49 H           1.1688   12.5402    3.7124 H       1  LIG1        0.0266
     50 H           0.5943   11.4717    2.7239 H       1  LIG1        0.0266
     51 C           1.7397   10.6303    4.2074 C.3     1  LIG1       -0.0460
     52 H           0.9323   10.3764    4.6800 H       1  LIG1        0.0271
     53 H           2.3583   10.9916    4.8616 H       1  LIG1        0.0271
@<TRIPOS>BOND
     1    41    40    1
     2    42    40    1
     3    40    37    1
     4    40    43    1
     5    38    37    1
     6    44    43    1
     7    37    39    1
     8    37    34    1
     9     9     6    1
    10    47    45    1
    11    43    45    1
    12    43     2    1
    13     7     6    1
    14     8     6    1
    15     6    10    1
    16    45    46    1
    17    45    48    1
    18    35    34    1
    19    34    36    1
    20    34    32    1
    21     2    32    1
    22     2     1    1
    23    50    48    1
    24    48    49    1
    25    48    51    1
    26     3    10    1
    27     3    23    1
    28    10     1    1
    29    10    11    1
    30    32    51    1
    31    32    33    1
    32    20    19    1
    33    22    19    1
    34    12    11    1
    35     1    27    1
    36    51    52    1
    37    51    53    1
    38    19    23    1
    39    19    21    1
    40    11    13    1
    41    11    14    1
    42    23    24    1
    43    23     5    1
    44    25    24    1
    45    24    27    1
    46    24    26    1
    47     5    14    1
    48    14     4    1
    49    14    15    1
    50    27     4    1
    51    27    28    1
    52    18    15    1
    53    30    28    1
    54    15    17    1
    55    15    16    1
    56    28    31    1
    57    28    29    1
