@<TRIPOS>MOLECULE
?
 52 54 0 0 0
SMALL
GASTEIGER

@<TRIPOS>ATOM
      1 C           2.6489    4.1238    3.7331 C.ar    1  LIG1        0.0123
      2 C           2.1677    4.3316    2.4275 C.ar    1  LIG1       -0.0202
      3 C           2.7973    3.6795    1.3651 C.ar    1  LIG1       -0.0563
      4 H           2.4771    3.8143    0.4814 H       1  LIG1        0.0621
      5 C           3.8844    2.8365    1.5735 C.ar    1  LIG1       -0.0614
      6 H           4.3009    2.3996    0.8396 H       1  LIG1        0.0618
      7 C           4.3546    2.6398    2.8627 C.ar    1  LIG1       -0.0607
      8 H           5.1017    2.0729    3.0085 H       1  LIG1        0.0618
      9 C           3.7423    3.2648    3.9435 C.ar    1  LIG1       -0.0480
     10 H           4.0628    3.1112    4.8242 H       1  LIG1        0.0629
     11 C           1.0229    5.2809    2.1617 C.3     1  LIG1        0.0223
     12 H           0.6328    5.0867    1.2728 H       1  LIG1        0.0474
     13 H           0.3174    5.1439    2.8422 H       1  LIG1        0.0474
     14 C           0.3734    7.6292    2.2438 C.3     1  LIG1        0.0052
     15 H          -0.1624    7.4826    3.0629 H       1  LIG1        0.0432
     16 H          -0.2159    7.4899    1.4606 H       1  LIG1        0.0432
     17 C           0.9088    9.0472    2.2325 C.3     1  LIG1        0.0063
     18 H           0.1447    9.6777    2.2571 H       1  LIG1        0.0389
     19 H           1.3972    9.1990    1.3847 H       1  LIG1        0.0389
     20 C           0.8282    9.3750    5.0038 C.3     1  LIG1        0.0063
     21 H           0.0844   10.0006    4.8150 H       1  LIG1        0.0389
     22 H           0.4507    8.4637    5.0859 H       1  LIG1        0.0389
     23 C           1.5045    9.7657    6.3074 C.3     1  LIG1        0.0052
     24 H           1.9024   10.6680    6.2130 H       1  LIG1        0.0432
     25 H           0.8290    9.8030    7.0290 H       1  LIG1        0.0432
     26 C           2.9855    8.9414    8.0759 C.3     1  LIG1        0.0230
     27 H           3.1187    9.9004    8.2843 H       1  LIG1        0.0474
     28 H           3.8524    8.4795    8.1981 H       1  LIG1        0.0474
     29 C           1.9709    8.3599    9.0367 C.ar    1  LIG1       -0.0128
     30 C           1.6317    6.9850    8.9658 C.ar    1  LIG1        0.0316
     31 C           0.8030    6.4412    9.9707 C.ar    1  LIG1       -0.0405
     32 H           0.5864    5.5166    9.9563 H       1  LIG1        0.0636
     33 C           0.3003    7.2572   10.9848 C.ar    1  LIG1       -0.0600
     34 H          -0.2442    6.8743   11.6623 H       1  LIG1        0.0618
     35 C           0.5788    8.6074   11.0238 C.ar    1  LIG1       -0.0613
     36 H           0.2126    9.1589   11.7044 H       1  LIG1        0.0618
     37 C           1.4112    9.1466   10.0415 C.ar    1  LIG1       -0.0556
     38 H           1.6018   10.0774   10.0580 H       1  LIG1        0.0621
     39 C           1.7843    4.8227    7.7711 C.3     1  LIG1        0.0185
     40 H           0.8055    4.7651    7.6387 H       1  LIG1        0.0469
     41 H           2.0147    4.3068    8.5850 H       1  LIG1        0.0469
     42 C           2.4972    4.2199    6.5671 C.3     1  LIG1        0.0138
     43 H           2.3537    3.2398    6.5455 H       1  LIG1        0.0395
     44 H           3.4698    4.3906    6.6307 H       1  LIG1        0.0395
     45 N           1.4762    6.6750    2.2017 N.3     1  LIG1       -0.3112
     46 N           2.5560    8.8046    6.6718 N.3     1  LIG1       -0.3112
     47 N           2.1710    6.2118    7.9507 N.pl3   1  LIG1       -0.3428
     48 S           2.0265    9.4192    3.6336 S.3     1  LIG1       -0.1582
     49 S           1.8298    4.9785    5.0570 S.3     1  LIG1       -0.1233
     50 H           3.2403    8.9422    6.1791 H       1  LIG1        0.1223
     51 H           1.9360    6.7613    2.9151 H       1  LIG1        0.1223
     52 H           2.3183    6.6495    7.2466 H       1  LIG1        0.1461
@<TRIPOS>BOND
     1     4     3    1
     2     6     5    1
     3    12    11    1
     4     3     5   ar
     5     3     2   ar
     6    19    17    1
     7    16    14    1
     8     5     7   ar
     9    11    45    1
    10    11     2    1
    11    11    13    1
    12    45    14    1
    13    45    51    1
    14    17    14    1
    15    17    18    1
    16    17    48    1
    17    14    15    1
    18     2     1   ar
    19     7     8    1
    20     7     9   ar
    21    48    20    1
    22     1     9   ar
    23     1    49    1
    24     9    10    1
    25    21    20    1
    26    20    22    1
    27    20    23    1
    28    49    42    1
    29    50    46    1
    30    24    23    1
    31    23    46    1
    32    23    25    1
    33    43    42    1
    34    42    44    1
    35    42    39    1
    36    46    26    1
    37    52    47    1
    38    40    39    1
    39    39    47    1
    40    39    41    1
    41    47    30    1
    42    26    28    1
    43    26    27    1
    44    26    29    1
    45    30    29   ar
    46    30    31   ar
    47    29    37   ar
    48    32    31    1
    49    31    33   ar
    50    37    38    1
    51    37    35   ar
    52    33    35   ar
    53    33    34    1
    54    35    36    1
