@<TRIPOS>MOLECULE
?
 86 89 0 0 0
SMALL
GASTEIGER

@<TRIPOS>ATOM
      1 C           6.9663    7.0998   10.7219 C.3     1  LIG1        0.0605
      2 H           7.0473    6.1531   10.8575 H       1  LIG1        0.0483
      3 H           7.0848    7.3013    9.7900 H       1  LIG1        0.0483
      4 H           6.0954    7.3902   11.0036 H       1  LIG1        0.0483
      5 C           9.1865   11.1124   11.6726 C.3     1  LIG1        0.0605
      6 H           8.4074   11.2099   12.2255 H       1  LIG1        0.0483
      7 H           8.9390   11.2132   10.7512 H       1  LIG1        0.0483
      8 H           9.8308   11.7863   11.9067 H       1  LIG1        0.0483
      9 C          12.0252    7.7796   11.2573 C.3     1  LIG1        0.0605
     10 H          12.4547    7.3611   12.0063 H       1  LIG1        0.0483
     11 H          12.1112    8.7333   11.3306 H       1  LIG1        0.0483
     12 H          12.4399    7.4819   10.4441 H       1  LIG1        0.0483
     13 C           7.2387    6.9052   13.4965 C.2     1  LIG1        0.0742
     14 H           6.5140    6.5012   13.0755 H       1  LIG1        0.0868
     15 C           7.4512    6.8057   14.9485 C.ar    1  LIG1        0.0842
     16 C           8.6950    7.2169   15.5033 C.ar    1  LIG1       -0.0341
     17 H           9.3851    7.4983   14.9465 H       1  LIG1        0.0639
     18 C           8.8715    7.1980   16.8469 C.ar    1  LIG1       -0.0505
     19 H           9.6722    7.4879   17.2193 H       1  LIG1        0.0625
     20 C           7.9313    6.6696   19.0838 C.ar    1  LIG1       -0.0526
     21 H           8.7171    6.9481   19.4970 H       1  LIG1        0.0624
     22 C           6.8958    6.2048   19.8400 C.ar    1  LIG1       -0.0611
     23 H           6.9771    6.1650   20.7654 H       1  LIG1        0.0618
     24 C           5.7049    5.7863   19.2198 C.ar    1  LIG1       -0.0597
     25 H           5.0002    5.4752   19.7411 H       1  LIG1        0.0618
     26 C           5.5725    5.8293   17.8601 C.ar    1  LIG1       -0.0357
     27 H           4.7833    5.5371   17.4633 H       1  LIG1        0.0639
     28 C           6.6242    6.3147   17.0551 C.ar    1  LIG1        0.0717
     29 C           7.8195    6.7310   17.6796 C.ar    1  LIG1        0.0004
     30 C          10.2119   10.2803   14.0874 C.2     1  LIG1        0.0742
     31 H           9.7575   11.0859   13.9936 H       1  LIG1        0.0868
     32 C          10.8521    9.8996   15.3619 C.ar    1  LIG1        0.0842
     33 C          11.8526    8.9012   15.4019 C.ar    1  LIG1       -0.0341
     34 H          12.1099    8.4588   14.6261 H       1  LIG1        0.0639
     35 C          12.4316    8.6013   16.5925 C.ar    1  LIG1       -0.0505
     36 H          13.1049    7.9610   16.6365 H       1  LIG1        0.0625
     37 C          12.5730    9.0504   19.0464 C.ar    1  LIG1       -0.0526
     38 H          13.2498    8.4210   19.1484 H       1  LIG1        0.0624
     39 C          12.1335    9.7594   20.1295 C.ar    1  LIG1       -0.0611
     40 H          12.5287    9.6248   20.9613 H       1  LIG1        0.0618
     41 C          11.0907   10.6930   19.9964 C.ar    1  LIG1       -0.0597
     42 H          10.7906   11.1590   20.7421 H       1  LIG1        0.0618
     43 C          10.5154   10.9176   18.7838 C.ar    1  LIG1       -0.0357
     44 H           9.8146   11.5240   18.7101 H       1  LIG1        0.0639
     45 C          10.9758   10.2369   17.6345 C.ar    1  LIG1        0.0717
     46 C          12.0012    9.2694   17.7701 C.ar    1  LIG1        0.0004
     47 C          11.0946    5.2008   10.9055 C.2     1  LIG1        0.0742
     48 H          11.9918    5.3724   11.0783 H       1  LIG1        0.0868
     49 C          10.6407    3.8521   10.5590 C.ar    1  LIG1        0.0842
     50 C           9.2596    3.5860   10.3297 C.ar    1  LIG1       -0.0341
     51 H           8.6294    4.2621   10.4308 H       1  LIG1        0.0639
     52 C           8.8758    2.3439    9.9653 C.ar    1  LIG1       -0.0505
     53 H           7.9752    2.1542    9.8299 H       1  LIG1        0.0625
     54 C           9.5371    0.0151    9.3730 C.ar    1  LIG1       -0.0526
     55 H           8.6523   -0.2233    9.2123 H       1  LIG1        0.0624
     56 C          10.5352   -0.9140    9.2048 C.ar    1  LIG1       -0.0611
     57 H          10.3233   -1.7715    8.9168 H       1  LIG1        0.0618
     58 C          11.8704   -0.5809    9.4631 C.ar    1  LIG1       -0.0597
     59 H          12.5353   -1.2206    9.3484 H       1  LIG1        0.0618
     60 C          12.2094    0.6798    9.8841 C.ar    1  LIG1       -0.0357
     61 H          13.0976    0.8882   10.0606 H       1  LIG1        0.0639
     62 C          11.2062    1.6610   10.0495 C.ar    1  LIG1        0.0717
     63 C           9.8473    1.3371    9.7912 C.ar    1  LIG1        0.0004
     64 C           3.0818    5.2437   14.5447 C.3     1  LIG1        0.0330
     65 H           2.9227    5.5374   15.4445 H       1  LIG1        0.0521
     66 H           3.2725    4.3018   14.5447 H       1  LIG1        0.0521
     67 H           2.3017    5.4117   14.0102 H       1  LIG1        0.0521
     68 C           5.5609    4.0451    9.2443 C.3     2  LIG2        0.0330
     69 H           4.9957    4.8187    9.3119 H       2  LIG2        0.0521
     70 H           5.2528    3.4863    8.5283 H       2  LIG2        0.0521
     71 H           6.4624    4.3215    9.0678 H       2  LIG2        0.0521
     72 N           7.9896    7.7942   11.5050 N.pl3   1  LIG1       -0.0781
     73 N           8.1071    7.5768   12.8515 N.2     1  LIG1       -0.1529
     74 N           9.7669    9.7945   11.8792 N.pl3   1  LIG1       -0.0781
     75 N          10.3117    9.4512   13.1157 N.2     1  LIG1       -0.1529
     76 N          10.6051    7.4162   11.2430 N.pl3   1  LIG1       -0.0781
     77 N          10.2216    6.1410   10.9637 N.2     1  LIG1       -0.1529
     78 N           6.4434    6.3629   15.6891 N.ar    1  LIG1       -0.2457
     79 N          10.4189   10.5678   16.4232 N.ar    1  LIG1       -0.2457
     80 N          11.5810    2.9204   10.4378 N.ar    1  LIG1       -0.2457
     81 P           9.3746    8.5087   10.8904 P.3     1  LIG1        0.4046
     82 S           9.1448    9.0236    9.0487 S.3     1  LIG1        0.2097
     83 O           5.5182    3.3254   10.4529 O.3     2  LIG2       -0.3982
     84 H           4.7404    3.2606   10.7048 H       2  LIG2        0.2090
     85 O           4.1731    5.9414   14.0105 O.3     1  LIG1       -0.3982
     86 H           4.7749    5.9753   14.5663 H       1  LIG1        0.2090
@<TRIPOS>BOND
     1    70    68    1
     2    57    56    1
     3    82    81    1
     4    71    68    1
     5    56    54   ar
     6    56    58   ar
     7    55    54    1
     8    68    69    1
     9    68    83    1
    10    59    58    1
    11    54    63   ar
    12    58    60   ar
    13     3     1    1
    14    63    52   ar
    15    63    62   ar
    16    53    52    1
    17    60    62   ar
    18    60    61    1
    19    52    50   ar
    20    62    80   ar
    21    50    51    1
    22    50    49   ar
    23    80    49   ar
    24    12     9    1
    25    83    84    1
    26    49    47    1
    27     1     2    1
    28     1     4    1
    29     1    72    1
    30     7     5    1
    31    81    76    1
    32    81    72    1
    33    81    74    1
    34    47    77    2
    35    47    48    1
    36    77    76    1
    37    76     9    1
    38     9    11    1
    39     9    10    1
    40    72    73    1
    41     5    74    1
    42     5     8    1
    43     5     6    1
    44    74    75    1
    45    73    13    2
    46    14    13    1
    47    75    30    2
    48    13    15    1
    49    31    30    1
    50    67    64    1
    51    85    64    1
    52    85    86    1
    53    30    32    1
    54    64    66    1
    55    64    65    1
    56    34    33    1
    57    17    16    1
    58    15    16   ar
    59    15    78   ar
    60    32    33   ar
    61    32    79   ar
    62    33    35   ar
    63    16    18   ar
    64    78    28   ar
    65    79    45   ar
    66    35    36    1
    67    35    46   ar
    68    18    19    1
    69    18    29   ar
    70    28    29   ar
    71    28    26   ar
    72    27    26    1
    73    45    46   ar
    74    45    43   ar
    75    29    20   ar
    76    46    37   ar
    77    26    24   ar
    78    44    43    1
    79    43    41   ar
    80    37    38    1
    81    37    39   ar
    82    20    21    1
    83    20    22   ar
    84    24    25    1
    85    24    22   ar
    86    22    23    1
    87    41    39   ar
    88    41    42    1
    89    39    40    1
