@<TRIPOS>MOLECULE
?
 68 68 0 0 0
SMALL
GASTEIGER

@<TRIPOS>ATOM
      1 S           2.2410    4.8928    4.1529 S.3     1  LIG1        0.1542
      2 P           3.4453    3.4079    3.7091 P.3     1  LIG1        0.1781
      3 N           6.0339    2.0707    2.9590 N.ar    1  LIG1       -0.2375
      4 N           4.8984    4.0830    3.1955 N.pl3   1  LIG1       -0.1882
      5 H           4.9453    4.9616    3.1898 H       1  LIG1        0.1945
      6 C           6.0374    3.3912    2.7781 C.ar    1  LIG1        0.1512
      7 C           7.1226    4.0962    2.2283 C.ar    1  LIG1       -0.0189
      8 H           7.0845    5.0374    2.1089 H       1  LIG1        0.0653
      9 C           8.2471    3.3746    1.8678 C.ar    1  LIG1       -0.0570
     10 H           8.9960    3.8156    1.4843 H       1  LIG1        0.0619
     11 C           8.2707    1.9982    2.0712 C.ar    1  LIG1       -0.0435
     12 H           9.0377    1.4848    1.8457 H       1  LIG1        0.0633
     13 C           7.1507    1.3991    2.6085 C.ar    1  LIG1        0.0298
     14 H           7.1657    0.4588    2.7397 H       1  LIG1        0.0830
     15 C           2.8513    2.3932    2.3073 C.3     1  LIG1        0.0959
     16 H           3.5730    1.7416    2.0746 H       1  LIG1        0.0761
     17 C           2.6187    3.2931    1.0870 C.3     1  LIG1       -0.0256
     18 H           2.4214    2.7370    0.3037 H       1  LIG1        0.0268
     19 H           3.4243    3.8251    0.9143 H       1  LIG1        0.0268
     20 H           1.8638    3.8925    1.2616 H       1  LIG1        0.0268
     21 C           1.5829    1.5964    2.6236 C.3     1  LIG1       -0.0256
     22 H           1.2831    1.1260    1.8176 H       1  LIG1        0.0268
     23 H           0.8796    2.2088    2.9250 H       1  LIG1        0.0268
     24 H           1.7748    0.9450    3.3300 H       1  LIG1        0.0268
     25 C           3.8118    2.3217    5.1451 C.3     1  LIG1        0.0959
     26 H           4.1548    1.4490    4.7971 H       1  LIG1        0.0761
     27 C           4.9000    2.9442    6.0279 C.3     1  LIG1       -0.0256
     28 H           5.0527    2.3740    6.8094 H       1  LIG1        0.0268
     29 H           4.6113    3.8335    6.3235 H       1  LIG1        0.0268
     30 H           5.7315    3.0243    5.5151 H       1  LIG1        0.0268
     31 C           2.5555    2.0418    5.9843 C.3     1  LIG1       -0.0256
     32 H           2.7828    1.4343    6.7191 H       1  LIG1        0.0268
     33 H           1.8696    1.6290    5.4186 H       1  LIG1        0.0268
     34 H           2.2134    2.8844    6.3500 H       1  LIG1        0.0268
     35 S           4.8833    6.4327    0.7725 S.3     2  LIG2        0.1542
     36 P           3.3758    7.6647    0.5491 P.3     2  LIG2        0.1781
     37 N           0.6065    8.8788    1.0825 N.ar    2  LIG2       -0.2375
     38 N           2.0966    7.1261    1.5010 N.pl3   2  LIG2       -0.1882
     39 H           2.2415    6.3875    1.9578 H       2  LIG2        0.1945
     40 C           0.8371    7.6994    1.6594 C.ar    2  LIG2        0.1512
     41 C          -0.1302    7.0092    2.4168 C.ar    2  LIG2       -0.0189
     42 H           0.0494    6.1465    2.7708 H       2  LIG2        0.0653
     43 C          -1.3458    7.6257    2.6277 C.ar    2  LIG2       -0.0570
     44 H          -2.0157    7.1914    3.1415 H       2  LIG2        0.0619
     45 C          -1.5879    8.8815    2.0871 C.ar    2  LIG2       -0.0435
     46 H          -2.4076    9.3350    2.2475 H       2  LIG2        0.0633
     47 C          -0.5983    9.4497    1.3097 C.ar    2  LIG2        0.0298
     48 H          -0.7750   10.2936    0.9096 H       2  LIG2        0.0830
     49 C           3.7706    9.3591    1.1149 C.3     2  LIG2        0.0959
     50 H           2.9529    9.9242    1.0093 H       2  LIG2        0.0761
     51 C           4.1344    9.3102    2.6043 C.3     2  LIG2       -0.0256
     52 H           4.3664   10.2105    2.9141 H       2  LIG2        0.0268
     53 H           4.9007    8.7130    2.7334 H       2  LIG2        0.0268
     54 H           3.3697    8.9761    3.1166 H       2  LIG2        0.0268
     55 C           4.9005    9.9881    0.2945 C.3     2  LIG2       -0.0256
     56 H           5.1056   10.8787    0.6495 H       2  LIG2        0.0268
     57 H           4.6201   10.0652   -0.6417 H       2  LIG2        0.0268
     58 H           5.6995    9.4223    0.3504 H       2  LIG2        0.0268
     59 C           2.7634    7.7249   -1.1873 C.3     2  LIG2        0.0959
     60 H           2.3124    8.6057   -1.3348 H       2  LIG2        0.0761
     61 C           1.7429    6.6078   -1.4384 C.3     2  LIG2       -0.0256
     62 H           1.4882    6.6042   -2.3846 H       2  LIG2        0.0268
     63 H           0.9481    6.7621   -0.8862 H       2  LIG2        0.0268
     64 H           2.1412    5.7435   -1.2040 H       2  LIG2        0.0268
     65 C           3.9209    7.5966   -2.1872 C.3     2  LIG2       -0.0256
     66 H           3.5704    7.6481   -3.1010 H       2  LIG2        0.0268
     67 H           4.3711    6.7358   -2.0575 H       2  LIG2        0.0268
     68 H           4.5612    8.3247   -2.0419 H       2  LIG2        0.0268
@<TRIPOS>BOND
     1    66    65    1
     2    62    61    1
     3    65    67    1
     4    65    68    1
     5    65    59    1
     6    61    64    1
     7    61    59    1
     8    61    63    1
     9    60    59    1
    10    59    36    1
    11    57    55    1
    12    55    58    1
    13    55    56    1
    14    55    49    1
    15    18    17    1
    16    36    35    1
    17    36    49    1
    18    36    38    1
    19    48    47    1
    20    19    17    1
    21    50    49    1
    22    37    47   ar
    23    37    40   ar
    24    17    20    1
    25    17    15    1
    26    49    51    1
    27    47    45   ar
    28    10     9    1
    29    38    40    1
    30    38    39    1
    31    40    41   ar
    32    22    21    1
    33    12    11    1
    34     9    11   ar
    35     9     7   ar
    36    11    13   ar
    37    16    15    1
    38    45    46    1
    39    45    43   ar
    40     8     7    1
    41     7     6   ar
    42    15    21    1
    43    15     2    1
    44    41    43   ar
    45    41    42    1
    46    51    53    1
    47    51    52    1
    48    51    54    1
    49    13    14    1
    50    13     3   ar
    51    21    23    1
    52    21    24    1
    53    43    44    1
    54     6     3   ar
    55     6     4    1
    56     5     4    1
    57     4     2    1
    58     2     1    1
    59     2    25    1
    60    26    25    1
    61    25    31    1
    62    25    27    1
    63    33    31    1
    64    30    27    1
    65    31    34    1
    66    31    32    1
    67    27    29    1
    68    27    28    1
