@<TRIPOS>MOLECULE
?
 32 31 0 0 0
SMALL
GASTEIGER

@<TRIPOS>ATOM
      1 O           4.5854   12.8963    4.2608 O.co2   1  LIG1       -0.2405
      2 O           3.6728   13.6175    2.3912 O.co2   1  LIG1       -0.2405
      3 O           2.5588   11.6208    5.7893 O.3     1  LIG1       -0.4336
      4 O           0.6658    9.6484    5.6420 O.3     1  LIG1       -0.4690
      5 N           1.0027   13.3171    5.6473 N.2     1  LIG1       -0.1100
      6 N           1.3550   13.7811    8.3616 N.2     1  LIG1       -0.2746
      7 C           3.7395   12.8272    3.3597 C.2     1  LIG1        0.3902
      8 C           2.7230   11.6947    3.3674 C.ar    1  LIG1        0.1090
      9 C           2.3389   11.1243    2.1614 C.ar    1  LIG1       -0.0438
     10 H           2.7134   11.4402    1.3713 H       1  LIG1        0.0627
     11 C           1.4139   10.0960    2.1042 C.ar    1  LIG1       -0.0573
     12 H           1.1952    9.7108    1.2868 H       1  LIG1        0.0619
     13 C           0.8175    9.6420    3.2631 C.ar    1  LIG1       -0.0162
     14 H           0.1772    8.9689    3.2288 H       1  LIG1        0.0655
     15 C           1.1781   10.1926    4.4609 C.ar    1  LIG1        0.1648
     16 C           2.1431   11.1995    4.5312 C.ar    1  LIG1        0.1857
     17 C           1.8620   12.6251    6.3757 C.2     1  LIG1        0.2426
     18 C           2.0582   12.8425    7.7305 C.3     1  LIG1        0.1587
     19 H           2.6804   12.3320    8.1981 H       1  LIG1        0.0669
     20 C           0.4715   14.4744    7.6512 C.2     1  LIG1        0.0408
     21 H          -0.0330   15.1374    8.0626 H       1  LIG1        0.0841
     22 C          -0.2957   10.3495    6.3060 C.3     1  LIG1        0.2526
     23 N           1.8025   15.3317    0.8754 N.pl3   2  LIG2       -0.2920
     24 H           1.2768   16.0095    0.9237 H       2  LIG2        0.2545
     25 H           2.2374   15.0760    1.5715 H       2  LIG2        0.2545
     26 N           1.2768   15.0762   -1.3292 N.pl3   2  LIG2       -0.2920
     27 H           0.7504   15.7540   -1.2818 H       2  LIG2        0.2545
     28 H           1.3689   14.6534   -2.0725 H       2  LIG2        0.2545
     29 N           2.7907   13.6649   -0.3203 N.pl3   2  LIG2       -0.2920
     30 H           2.9132   13.2483   -1.0618 H       2  LIG2        0.2545
     31 H           3.2172   13.4227    0.3854 H       2  LIG2        0.2545
     32 C           1.9414   14.6851   -0.2653 C.cat   2  LIG2        0.3387
@<TRIPOS>BOND
     1    28    26    1
     2    26    27    1
     3    26    32    2
     4    30    29    1
     5    29    32    1
     6    29    31    1
     7    32    23    1
     8    23    24    1
     9    23    25    1
    10    12    11    1
    11    10     9    1
    12    11     9   ar
    13    11    13   ar
    14     9     8   ar
    15     2     7   ar
    16    14    13    1
    17    13    15   ar
    18     7     8    1
    19     7     1   ar
    20     8    16   ar
    21    15    16   ar
    22    15     4    1
    23    16     3    1
    24     4    22    1
    25     5    17    2
    26     3    17    1
    27    17    18    1
    28    20    21    1
    29    20     6    2
    30    18    19    1
    31    18     6    1
