@<TRIPOS>MOLECULE
2-(1,3-di(tert-butyl)imidazol-3-ium-2-yl)- 1,1,3,3-tetra-ethyloxycarbonyl-propan-2-ide
 39 38 0 0 0
SMALL
GASTEIGER

@<TRIPOS>ATOM
      1 O           2.8404    3.3913    4.9819 O.2     1  LIG1       -0.2447
      2 O           3.6807    3.0182    2.9242 O.3     1  LIG1       -0.4613
      3 O           2.6822   -0.7126    5.5212 O.2     1  LIG1       -0.2447
      4 O           1.4123    1.1067    5.1168 O.3     1  LIG1       -0.4613
      5 N           4.2164   -1.7128    3.0224 N.3     1  LIG1       -0.2780
      6 C           4.8149   -0.9230    3.9425 C.3     1  LIG1        0.0989
      7 C           4.4391   -3.0313    3.3815 C.3     1  LIG1        0.0460
      8 H           4.1270   -3.7830    2.9300 H       1  LIG1        0.0495
      9 C           4.8149    0.5742    3.9425 C.2     1  LIG1        0.0042
     10 C           3.6321    1.1891    4.3927 C.2     1  LIG1        0.1480
     11 C           3.3463    2.6324    4.1789 C.2     1  LIG1        0.3465
     12 C           3.4065    4.4053    2.5850 C.3     1  LIG1        0.0900
     13 H           3.8198    4.9987    3.2312 H       1  LIG1        0.0695
     14 H           2.4508    4.5697    2.5815 H       1  LIG1        0.0695
     15 C           3.9841    4.6410    1.2124 C.3     1  LIG1       -0.0306
     16 H           3.6087    4.0096    0.5945 H       1  LIG1        0.0262
     17 H           4.9374    4.5309    1.2427 H       1  LIG1        0.0262
     18 H           3.7736    5.5329    0.9257 H       1  LIG1        0.0262
     19 C           2.5876    0.4183    5.0645 C.2     1  LIG1        0.3465
     20 C           0.3342    0.4872    5.8453 C.3     1  LIG1        0.0900
     21 H           0.6530    0.1424    6.6943 H       1  LIG1        0.0695
     22 H          -0.0419   -0.2461    5.3349 H       1  LIG1        0.0695
     23 C          -0.7074    1.5624    6.0701 C.3     1  LIG1       -0.0306
     24 H          -1.0216    1.8858    5.2230 H       1  LIG1        0.0262
     25 H          -0.3179    2.2873    6.5650 H       1  LIG1        0.0262
     26 H          -1.4440    1.1963    6.5650 H       1  LIG1        0.0262
     27 C           3.4485   -1.3649    1.7618 C.3     1  LIG1        0.0149
     28 C           1.9591   -1.4632    2.0980 C.3     1  LIG1       -0.0470
     29 H           1.7355   -0.8013    2.7566 H       1  LIG1        0.0247
     30 H           1.7659   -2.3375    2.4443 H       1  LIG1        0.0247
     31 H           1.4414   -1.3128    1.3042 H       1  LIG1        0.0247
     32 C           3.8273   -2.3948    0.6904 C.3     1  LIG1       -0.0470
     33 H           3.5117   -3.2618    0.9541 H       1  LIG1        0.0247
     34 H           4.7817   -2.4184    0.5914 H       1  LIG1        0.0247
     35 H           3.4252   -2.1497   -0.1467 H       1  LIG1        0.0247
     36 C           3.7946    0.0272    1.2353 C.3     1  LIG1       -0.0470
     37 H           3.4074    0.1457    0.3643 H       1  LIG1        0.0247
     38 H           4.7487    0.1198    1.1764 H       1  LIG1        0.0247
     39 H           3.4448    0.6912    1.8340 H       1  LIG1        0.0247
@<TRIPOS>BOND
     1    35    32    1
     2    37    36    1
     3    34    32    1
     4    16    15    1
     5    32    33    1
     6    32    27    1
     7    18    15    1
     8    38    36    1
     9    15    17    1
    10    15    12    1
    11    36    27    1
    12    36    39    1
    13    31    28    1
    14    27    28    1
    15    27     5    1
    16    28    30    1
    17    28    29    1
    18    14    12    1
    19    12     2    1
    20    12    13    1
    21     2    11    1
    22     8     7    1
    23     5     7    1
    24     5     6    1
    25     9     6    1
    26     9    10    2
    27    11    10    1
    28    11     1    2
    29    10    19    1
    30    19     4    1
    31    19     3    2
    32     4    20    1
    33    24    23    1
    34    22    20    1
    35    20    23    1
    36    20    21    1
    37    23    26    1
    38    23    25    1
