@<TRIPOS>MOLECULE
1-(4-(methyl)phenylthio)-carbo-bis(triphenyl)phosphonium hexafluorophosphate
 91 96 0 0 0
SMALL
GASTEIGER

@<TRIPOS>ATOM
      1 S           6.9698    6.1209    2.4094 S.3     1  LIG1       -0.0262
      2 P           4.3394    7.2704    3.3544 P.3     1  LIG1        0.1784
      3 P           6.2665    5.6066    5.1914 P.3     1  LIG1        0.1784
      4 P           2.7384    0.4406    4.7043 P.3     2  LIG2        0.6235
      5 F           4.1849   -0.2221    4.8888 F       2  LIG2       -0.1039
      6 F           1.2863    1.1045    4.5414 F       2  LIG2       -0.1039
      7 F           3.2162    1.1279    3.3425 F       2  LIG2       -0.1039
      8 F           2.2433   -0.8567    3.9042 F       2  LIG2       -0.1039
      9 F           3.2279    1.7347    5.5233 F       2  LIG2       -0.1039
     10 F           2.2633   -0.2415    6.0843 F       2  LIG2       -0.1039
     11 C           5.7280    6.2621    3.6588 C.3     1  LIG1        0.3396
     12 C           6.6622    4.6443    1.4488 C.ar    1  LIG1        0.0158
     13 C           7.7632    4.1120    0.7668 C.ar    1  LIG1       -0.0478
     14 H           8.6010    4.5038    0.8623 H       1  LIG1        0.0629
     15 C           7.6049    3.0002   -0.0510 C.ar    1  LIG1       -0.0578
     16 H           8.3396    2.6682   -0.5164 H       1  LIG1        0.0621
     17 C           6.3723    2.3750   -0.1878 C.ar    1  LIG1       -0.0504
     18 C           5.2838    2.8984    0.5095 C.ar    1  LIG1       -0.0578
     19 H           4.4539    2.4856    0.4376 H       1  LIG1        0.0621
     20 C           5.4176    4.0318    1.3117 C.ar    1  LIG1       -0.0478
     21 H           4.6769    4.3787    1.7552 H       1  LIG1        0.0629
     22 C           6.1927    1.1859   -1.1135 C.3     1  LIG1       -0.0397
     23 H           5.2804    0.8883   -1.0779 H       1  LIG1        0.0278
     24 H           6.7730    0.4746   -0.8366 H       1  LIG1        0.0278
     25 H           6.4098    1.4453   -2.0127 H       1  LIG1        0.0278
     26 C           4.1277    8.5455    4.6163 C.ar    1  LIG1        0.1116
     27 C           5.2558    9.2539    5.0307 C.ar    1  LIG1       -0.0186
     28 H           6.0804    9.0965    4.6302 H       1  LIG1        0.0657
     29 C           5.1413   10.2011    6.0501 C.ar    1  LIG1       -0.0580
     30 H           5.8899   10.6744    6.3324 H       1  LIG1        0.0619
     31 C           3.9069   10.4368    6.6418 C.ar    1  LIG1       -0.0615
     32 H           3.8379   11.0558    7.3315 H       1  LIG1        0.0618
     33 C           2.7791    9.7594    6.2162 C.ar    1  LIG1       -0.0580
     34 H           1.9532    9.9374    6.6059 H       1  LIG1        0.0619
     35 C           2.8833    8.8066    5.1964 C.ar    1  LIG1       -0.0186
     36 H           2.1276    8.3489    4.9054 H       1  LIG1        0.0657
     37 C           2.7418    6.4162    3.2658 C.ar    1  LIG1        0.1116
     38 C           2.5283    5.2194    3.9635 C.ar    1  LIG1       -0.0186
     39 H           3.2315    4.8093    4.4131 H       1  LIG1        0.0657
     40 C           1.2572    4.6442    3.9833 C.ar    1  LIG1       -0.0580
     41 H           1.1133    3.8505    4.4468 H       1  LIG1        0.0619
     42 C           0.2083    5.2551    3.3126 C.ar    1  LIG1       -0.0615
     43 H          -0.6412    4.8775    3.3416 H       1  LIG1        0.0618
     44 C           0.4167    6.4295    2.5960 C.ar    1  LIG1       -0.0580
     45 H          -0.2859    6.8243    2.1317 H       1  LIG1        0.0619
     46 C           1.6765    7.0129    2.5753 C.ar    1  LIG1       -0.0186
     47 H           1.8156    7.8008    2.1011 H       1  LIG1        0.0657
     48 C           4.5175    8.1298    1.7655 C.ar    1  LIG1        0.1116
     49 C           4.3824    7.4159    0.5731 C.ar    1  LIG1       -0.0186
     50 H           4.2321    6.4992    0.5921 H       1  LIG1        0.0657
     51 C           4.4743    8.0816   -0.6418 C.ar    1  LIG1       -0.0580
     52 H           4.3947    7.6038   -1.4367 H       1  LIG1        0.0619
     53 C           4.6848    9.4486   -0.6807 C.ar    1  LIG1       -0.0615
     54 H           4.7398    9.8893   -1.4978 H       1  LIG1        0.0618
     55 C           4.8111   10.1547    0.4939 C.ar    1  LIG1       -0.0580
     56 H           4.9476   11.0744    0.4666 H       1  LIG1        0.0619
     57 C           4.7374    9.5029    1.7301 C.ar    1  LIG1       -0.0186
     58 H           4.8334    9.9839    2.5211 H       1  LIG1        0.0657
     59 C           4.9942    5.4416    6.4823 C.ar    1  LIG1        0.1116
     60 C           4.4603    6.5778    7.1005 C.ar    1  LIG1       -0.0186
     61 H           4.7346    7.4259    6.8328 H       1  LIG1        0.0657
     62 C           3.5166    6.4387    8.1156 C.ar    1  LIG1       -0.0580
     63 H           3.1275    7.1938    8.4931 H       1  LIG1        0.0619
     64 C           3.1565    5.1813    8.5647 C.ar    1  LIG1       -0.0615
     65 H           2.5451    5.0949    9.2605 H       1  LIG1        0.0618
     66 C           3.7068    4.0426    7.9807 C.ar    1  LIG1       -0.0580
     67 H           3.4677    3.1983    8.2904 H       1  LIG1        0.0619
     68 C           4.6155    4.1689    6.9330 C.ar    1  LIG1       -0.0186
     69 H           4.9708    3.4096    6.5319 H       1  LIG1        0.0657
     70 C           7.5766    6.5692    6.0124 C.ar    1  LIG1        0.1116
     71 C           7.7801    6.4144    7.3839 C.ar    1  LIG1       -0.0186
     72 H           7.2401    5.8341    7.8688 H       1  LIG1        0.0657
     73 C           8.7911    7.1271    8.0310 C.ar    1  LIG1       -0.0580
     74 H           8.9165    7.0328    8.9468 H       1  LIG1        0.0619
     75 C           9.6094    7.9815    7.2984 C.ar    1  LIG1       -0.0615
     76 H          10.2915    8.4475    7.7257 H       1  LIG1        0.0618
     77 C           9.4141    8.1406    5.9389 C.ar    1  LIG1       -0.0580
     78 H           9.9604    8.7171    5.4556 H       1  LIG1        0.0619
     79 C           8.3976    7.4408    5.2904 C.ar    1  LIG1       -0.0186
     80 H           8.2661    7.5531    4.3761 H       1  LIG1        0.0657
     81 C           6.9194    3.9471    4.8753 C.ar    1  LIG1        0.1116
     82 C           8.2080    3.5789    5.2667 C.ar    1  LIG1       -0.0186
     83 H           8.7427    4.1756    5.7387 H       1  LIG1        0.0657
     84 C           8.6882    2.3118    4.9470 C.ar    1  LIG1       -0.0580
     85 H           9.5488    2.0669    5.1982 H       1  LIG1        0.0619
     86 C           7.8891    1.4156    4.2559 C.ar    1  LIG1       -0.0615
     87 H           8.2230    0.5788    4.0285 H       1  LIG1        0.0618
     88 C           6.5874    1.7628    3.8990 C.ar    1  LIG1       -0.0580
     89 H           6.0428    1.1514    3.4590 H       1  LIG1        0.0619
     90 C           6.1099    3.0246    4.2054 C.ar    1  LIG1       -0.0186
     91 H           5.2432    3.2606    3.9642 H       1  LIG1        0.0657
@<TRIPOS>BOND
     1    25    22    1
     2    54    53    1
     3    52    51    1
     4    22    23    1
     5    22    24    1
     6    22    17    1
     7    53    51   ar
     8    53    55   ar
     9    51    49   ar
    10    16    15    1
    11    17    15   ar
    12    17    18   ar
    13    15    13   ar
    14    19    18    1
    15    56    55    1
    16    55    57   ar
    17    18    20   ar
    18    49    50    1
    19    49    48   ar
    20    13    14    1
    21    13    12   ar
    22    20    12   ar
    23    20    21    1
    24    12     1    1
    25    57    48   ar
    26    57    58    1
    27    48     2    1
    28    47    46    1
    29    45    44    1
    30     1    11    1
    31    46    44   ar
    32    46    37   ar
    33    44    42   ar
    34    37     2    1
    35    37    38   ar
    36    42    43    1
    37    42    40   ar
    38     7     4    1
    39     2    11    1
    40     2    26    1
    41    89    88    1
    42    11     3    1
    43    88    90   ar
    44    88    86   ar
    45     8     4    1
    46    38    40   ar
    47    38    39    1
    48    91    90    1
    49    40    41    1
    50    87    86    1
    51    90    81   ar
    52    86    84   ar
    53    80    79    1
    54     6     4    1
    55    26    27   ar
    56    26    35   ar
    57    28    27    1
    58     4     5    1
    59     4     9    1
    60     4    10    1
    61    81     3    1
    62    81    82   ar
    63    36    35    1
    64    84    85    1
    65    84    82   ar
    66    27    29   ar
    67     3    70    1
    68     3    59    1
    69    35    33   ar
    70    82    83    1
    71    79    77   ar
    72    79    70   ar
    73    78    77    1
    74    77    75   ar
    75    70    71   ar
    76    29    30    1
    77    29    31   ar
    78    33    34    1
    79    33    31   ar
    80    59    68   ar
    81    59    60   ar
    82    69    68    1
    83    31    32    1
    84    61    60    1
    85    68    66   ar
    86    60    62   ar
    87    75    76    1
    88    75    73   ar
    89    71    72    1
    90    71    73   ar
    91    66    67    1
    92    66    64   ar
    93    73    74    1
    94    62    63    1
    95    62    64   ar
    96    64    65    1
