@<TRIPOS>MOLECULE
?
 84 87 0 0 0
SMALL
GASTEIGER

@<TRIPOS>ATOM
      1 P          11.6830    4.3057    9.0740 P.3     1  LIG1        0.0000
      2 B           9.5280    7.9971    9.2467 B       1  LIG1        0.0000
      3 C          11.0665    5.9000    9.7782 C.3     1  LIG1        0.0000
      4 H          10.6654    5.7389   10.6583 H       1  LIG1        0.0000
      5 H          11.8153    6.5227    9.8924 H       1  LIG1        0.0000
      6 C          10.0180    6.5147    8.8339 C.3     1  LIG1        0.0000
      7 H           9.2376    5.9242    8.8063 H       1  LIG1        0.0000
      8 H          10.3933    6.5503    7.9298 H       1  LIG1        0.0000
      9 C          10.6039    9.1608    9.0179 C.2     1  LIG1        0.0000
     10 H          10.4397    9.9734    9.4583 H       1  LIG1        0.0000
     11 C          11.7047    9.1033    8.2720 C.2     1  LIG1        0.0000
     12 H          11.9656    8.2527    7.9661 H       1  LIG1        0.0000
     13 C          12.5727   10.2600    7.8687 C.3     1  LIG1        0.0000
     14 H          12.4386   10.9897    8.5092 H       1  LIG1        0.0000
     15 H          12.2809   10.5800    6.9906 H       1  LIG1        0.0000
     16 C          14.0480    9.9423    7.8010 C.3     1  LIG1        0.0000
     17 H          14.1746    9.1263    7.2728 H       1  LIG1        0.0000
     18 H          14.5119   10.6721    7.3405 H       1  LIG1        0.0000
     19 C          14.6636    9.7501    9.1595 C.3     1  LIG1        0.0000
     20 H          14.5959   10.5754    9.6646 H       1  LIG1        0.0000
     21 H          15.5962    9.5061    9.0605 H       1  LIG1        0.0000
     22 H          14.1926    9.0434    9.6300 H       1  LIG1        0.0000
     23 C          12.5195    4.9838    7.5734 C.ar    1  LIG1        0.0000
     24 C          13.7143    5.7400    7.5909 C.ar    1  LIG1        0.0000
     25 C          14.2508    6.1889    6.3863 C.ar    1  LIG1        0.0000
     26 H          15.0426    6.6954    6.4062 H       1  LIG1        0.0000
     27 C          13.6686    5.9184    5.1658 C.ar    1  LIG1        0.0000
     28 C          12.4995    5.1922    5.1633 C.ar    1  LIG1        0.0000
     29 H          12.0791    5.0161    4.3413 H       1  LIG1        0.0000
     30 C          11.9144    4.7087    6.3338 C.ar    1  LIG1        0.0000
     31 C          14.4615    6.0738    8.8533 C.3     1  LIG1        0.0000
     32 H          14.9426    5.2900    9.1612 H       1  LIG1        0.0000
     33 H          13.8331    6.3558    9.5359 H       1  LIG1        0.0000
     34 H          15.0908    6.7909    8.6776 H       1  LIG1        0.0000
     35 C          14.2937    6.4030    3.8812 C.3     1  LIG1        0.0000
     36 H          14.1222    5.7596    3.1759 H       1  LIG1        0.0000
     37 H          15.2510    6.5008    4.0045 H       1  LIG1        0.0000
     38 H          13.9090    7.2594    3.6381 H       1  LIG1        0.0000
     39 C          10.6489    3.8973    6.2009 C.3     1  LIG1        0.0000
     40 H          10.3653    3.8881    5.2739 H       1  LIG1        0.0000
     41 H           9.9520    4.2932    6.7479 H       1  LIG1        0.0000
     42 H          10.8145    2.9891    6.4970 H       1  LIG1        0.0000
     43 C          13.0578    3.6061   10.0950 C.ar    1  LIG1        0.0000
     44 C          13.9330    2.7025    9.4489 C.ar    1  LIG1        0.0000
     45 C          14.9603    2.0960   10.1676 C.ar    1  LIG1        0.0000
     46 H          15.5504    1.5228    9.7125 H       1  LIG1        0.0000
     47 C          15.1477    2.3008   11.5200 C.ar    1  LIG1        0.0000
     48 C          14.2436    3.1238   12.1506 C.ar    1  LIG1        0.0000
     49 H          14.3324    3.2585   13.0766 H       1  LIG1        0.0000
     50 C          13.2060    3.7661   11.4891 C.ar    1  LIG1        0.0000
     51 C          13.7917    2.3055    7.9975 C.3     1  LIG1        0.0000
     52 H          14.1681    3.0007    7.4346 H       1  LIG1        0.0000
     53 H          12.8529    2.1892    7.7845 H       1  LIG1        0.0000
     54 H          14.2649    1.4733    7.8423 H       1  LIG1        0.0000
     55 C          16.2525    1.6033   12.2710 C.3     1  LIG1        0.0000
     56 H          16.2506    0.6595   12.0482 H       1  LIG1        0.0000
     57 H          16.1133    1.7104   13.2251 H       1  LIG1        0.0000
     58 H          17.1076    1.9912   12.0234 H       1  LIG1        0.0000
     59 C          12.2408    4.5614   12.3384 C.3     1  LIG1        0.0000
     60 H          12.3324    5.5052   12.1324 H       1  LIG1        0.0000
     61 H          12.4390    4.4152   13.2763 H       1  LIG1        0.0000
     62 H          11.3332    4.2760   12.1506 H       1  LIG1        0.0000
     63 C           8.1485    8.5059    8.4859 C.ar    1  LIG1        0.0000
     64 F           8.3690    7.0546    6.6147 F       1  LIG1        0.0000
     65 C           7.7097    8.0628    7.2520 C.ar    1  LIG1        0.0000
     66 F           6.3063    8.0996    5.3483 F       1  LIG1        0.0000
     67 C           6.6434    8.5957    6.5507 C.ar    1  LIG1        0.0000
     68 F           4.8934   10.1583    6.4297 F       1  LIG1        0.0000
     69 C           5.9302    9.6281    7.1008 C.ar    1  LIG1        0.0000
     70 F           5.5943   11.0967    8.8865 F       1  LIG1        0.0000
     71 C           6.2968   10.0977    8.3152 C.ar    1  LIG1        0.0000
     72 F           7.7015   10.1244   10.1572 F       1  LIG1        0.0000
     73 C           7.3794    9.5556    8.9725 C.ar    1  LIG1        0.0000
     74 N           9.1562    7.9085   10.8361 N.pl3   1  LIG1        0.0000
     75 C           8.1731    7.0948   11.2325 C.2     1  LIG1        0.0000
     76 H           7.6502    6.6585   10.5841 H       1  LIG1        0.0000
     77 C           7.9070    6.8772   12.5730 C.2     1  LIG1        0.0000
     78 H           7.2229    6.2891   12.8372 H       1  LIG1        0.0000
     79 C           8.6703    7.5425   13.5181 C.3     1  LIG1        0.0000
     80 H           8.5121    7.4124   14.4351 H       1  LIG1        0.0000
     81 C           9.6517    8.3908   13.1010 C.2     1  LIG1        0.0000
     82 H          10.1682    8.8662   13.7269 H       1  LIG1        0.0000
     83 C           9.8746    8.5393   11.7673 C.2     1  LIG1        0.0000
     84 H          10.5654    9.1113   11.4886 H       1  LIG1        0.0000
@<TRIPOS>BOND
     1    36    35    1
     2    38    35    1
     3    35    37    1
     4    35    27    1
     5    29    28    1
     6    28    27   ar
     7    28    30   ar
     8    27    25   ar
     9    40    39    1
    10    66    67    1
    11    39    30    1
    12    39    42    1
    13    39    41    1
    14    30    23   ar
    15    25    26    1
    16    25    24   ar
    17    68    69    1
    18    67    69   ar
    19    67    65   ar
    20    64    65    1
    21    15    13    1
    22    69    71   ar
    23    65    63   ar
    24    17    16    1
    25    18    16    1
    26    52    51    1
    27    23    24   ar
    28    23     1    1
    29    24    31    1
    30    53    51    1
    31    16    13    1
    32    16    19    1
    33    54    51    1
    34    13    11    1
    35    13    14    1
    36     8     6    1
    37    12    11    1
    38    51    44    1
    39    11     9    2
    40    71    70    1
    41    71    73   ar
    42    63    73   ar
    43    63     2    1
    44    34    31    1
    45     7     6    1
    46     6     2    1
    47     6     3    1
    48    31    32    1
    49    31    33    1
    50    73    72    1
    51     9     2    1
    52     9    10    1
    53    21    19    1
    54     1     3    1
    55     1    43    1
    56    19    22    1
    57    19    20    1
    58     2    74    1
    59    44    43   ar
    60    44    45   ar
    61    46    45    1
    62     3     5    1
    63     3     4    1
    64    43    50   ar
    65    45    47   ar
    66    76    75    1
    67    74    75    1
    68    74    83    1
    69    75    77    2
    70    84    83    1
    71    50    48   ar
    72    50    59    1
    73    47    48   ar
    74    47    55    1
    75    83    81    2
    76    58    55    1
    77    56    55    1
    78    60    59    1
    79    62    59    1
    80    48    49    1
    81    55    57    1
    82    59    61    1
    83    77    78    1
    84    77    79    1
    85    81    79    1
    86    81    82    1
    87    79    80    1
