@<TRIPOS>MOLECULE
?
 58 62 0 0 0
SMALL
GASTEIGER

@<TRIPOS>ATOM
      1 P           0.4089    2.5430    3.1731 P.3     1  LIG1        1.0000
      2 N           1.2239    3.7991    2.6765 N.2     1  LIG1        0.0000
      3 B           1.4314    5.0957    3.0393 B       1  LIG1        0.0000
      4 C           2.3752    6.0308    2.1400 C.ar    1  LIG1        0.0000
      5 F           1.4576    5.2480    0.0931 F       1  LIG1        0.0000
      6 C           2.3421    6.0260    0.7523 C.ar    1  LIG1        0.0000
      7 F           3.1019    6.7540   -1.3729 F       1  LIG1        0.0000
      8 C           3.1790    6.7991   -0.0298 C.ar    1  LIG1        0.0000
      9 F           4.9039    8.3918   -0.1859 F       1  LIG1        0.0000
     10 C           4.0916    7.6320    0.5658 C.ar    1  LIG1        0.0000
     11 F           5.0807    8.4731    2.5310 F       1  LIG1        0.0000
     12 C           4.1817    7.6737    1.9414 C.ar    1  LIG1        0.0000
     13 F           3.4842    6.9199    4.0406 F       1  LIG1        0.0000
     14 C           3.3326    6.8804    2.6906 C.ar    1  LIG1        0.0000
     15 C           0.7648    5.7637    4.3430 C.ar    1  LIG1        0.0000
     16 F          -0.4555    7.3170    3.0476 F       1  LIG1        0.0000
     17 C          -0.1755    6.7799    4.2573 C.ar    1  LIG1        0.0000
     18 F          -1.7803    8.2472    5.2115 F       1  LIG1        0.0000
     19 C          -0.8730    7.2683    5.3464 C.ar    1  LIG1        0.0000
     20 F          -1.3205    7.1494    7.6606 F       1  LIG1        0.0000
     21 C          -0.6330    6.7162    6.5891 C.ar    1  LIG1        0.0000
     22 F           0.5832    5.2144    7.9505 F       1  LIG1        0.0000
     23 C           0.3136    5.7294    6.7282 C.ar    1  LIG1        0.0000
     24 F           1.9200    4.3069    5.8114 F       1  LIG1        0.0000
     25 C           0.9904    5.2735    5.6195 C.ar    1  LIG1        0.0000
     26 C          -0.7808    2.7967    4.5218 C.ar    1  LIG1        0.0000
     27 C          -1.8210    3.7071    4.3014 C.ar    1  LIG1        0.0000
     28 H          -1.9265    4.1009    3.4431 H       1  LIG1        0.0000
     29 C          -2.7024    4.0394    5.3244 C.ar    1  LIG1        0.0000
     30 H          -3.4022    4.6633    5.1706 H       1  LIG1        0.0000
     31 C          -2.5465    3.4506    6.5726 C.ar    1  LIG1        0.0000
     32 H          -3.1443    3.6770    7.2756 H       1  LIG1        0.0000
     33 C          -1.5331    2.5383    6.8054 C.ar    1  LIG1        0.0000
     34 H          -1.4424    2.1374    7.6620 H       1  LIG1        0.0000
     35 C          -0.6453    2.2089    5.7809 C.ar    1  LIG1        0.0000
     36 H           0.0525    1.5844    5.9404 H       1  LIG1        0.0000
     37 C           1.5638    1.2687    3.7363 C.ar    1  LIG1        0.0000
     38 C           2.8660    1.6292    4.0540 C.ar    1  LIG1        0.0000
     39 H           3.1505    2.5283    3.9399 H       1  LIG1        0.0000
     40 C           1.1609   -0.0646    3.8920 C.ar    1  LIG1        0.0000
     41 H           0.2704   -0.3211    3.6833 H       1  LIG1        0.0000
     42 C           2.0675   -1.0086    4.3519 C.ar    1  LIG1        0.0000
     43 H           1.7959   -1.9147    4.4411 H       1  LIG1        0.0000
     44 C           3.3625   -0.6456    4.6822 C.ar    1  LIG1        0.0000
     45 H           3.9750   -1.2969    5.0050 H       1  LIG1        0.0000
     46 C           3.7572    0.6747    4.5386 C.ar    1  LIG1        0.0000
     47 H           4.6421    0.9307    4.7723 H       1  LIG1        0.0000
     48 C          -0.5358    1.8753    1.7926 C.ar    1  LIG1        0.0000
     49 C          -1.6364    1.0310    2.0037 C.ar    1  LIG1        0.0000
     50 H          -1.9243    0.8398    2.8882 H       1  LIG1        0.0000
     51 C          -2.3032    0.4776    0.9276 C.ar    1  LIG1        0.0000
     52 H          -3.0512   -0.0903    1.0711 H       1  LIG1        0.0000
     53 C          -1.8774    0.7541   -0.3679 C.ar    1  LIG1        0.0000
     54 H          -2.3275    0.3598   -1.1054 H       1  LIG1        0.0000
     55 C          -0.8042    1.5958   -0.5882 C.ar    1  LIG1        0.0000
     56 H          -0.5254    1.7873   -1.4754 H       1  LIG1        0.0000
     57 C          -0.1314    2.1656    0.4916 C.ar    1  LIG1        0.0000
     58 H           0.6023    2.7498    0.3401 H       1  LIG1        0.0000
@<TRIPOS>BOND
     1    56    55    1
     2     7     8    1
     3    54    53    1
     4    55    53   ar
     5    55    57   ar
     6    53    51   ar
     7     9    10    1
     8     8    10   ar
     9     8     6   ar
    10     5     6    1
    11    58    57    1
    12    57    48   ar
    13    10    12   ar
    14     6     4   ar
    15    51    52    1
    16    51    49   ar
    17    48    49   ar
    18    48     1    1
    19    12    11    1
    20    12    14   ar
    21    49    50    1
    22     4    14   ar
    23     4     3    1
    24     2     3    2
    25     2     1    1
    26    14    13    1
    27     3    15    1
    28    16    17    1
    29     1    37    1
    30     1    26    1
    31    28    27    1
    32    41    40    1
    33    37    40   ar
    34    37    38   ar
    35    40    42   ar
    36    39    38    1
    37    38    46   ar
    38    17    15   ar
    39    17    19   ar
    40    27    26   ar
    41    27    29   ar
    42    15    25   ar
    43    42    43    1
    44    42    44   ar
    45    26    35   ar
    46    46    44   ar
    47    46    47    1
    48    44    45    1
    49    30    29    1
    50    18    19    1
    51    29    31   ar
    52    19    21   ar
    53    25    24    1
    54    25    23   ar
    55    35    36    1
    56    35    33   ar
    57    31    33   ar
    58    31    32    1
    59    21    23   ar
    60    21    20    1
    61    23    22    1
    62    33    34    1
