@<TRIPOS>MOLECULE
?
 27 27 0 0 0
SMALL
GASTEIGER

@<TRIPOS>ATOM
      1 F          -3.2727    9.1171    1.8122 F       1  LIG1        0.0000
      2 F          -1.2622   10.2845    3.2346 F       1  LIG1        0.0000
      3 F           1.2817    9.7460    2.6673 F       1  LIG1        0.0000
      4 F          -2.6741    7.4691   -0.2571 F       1  LIG1        0.0000
      5 F          -0.1347    6.9343   -0.8785 F       1  LIG1        0.0000
      6 N           2.9043    6.7716    1.2186 N.4     1  LIG1        1.0000
      7 C           2.8577    6.9294    2.6925 C.3     1  LIG1        0.0000
      8 H           1.9241    6.9493    2.9901 H       1  LIG1        0.0000
      9 H           3.2992    7.7676    2.9453 H       1  LIG1        0.0000
     10 H           3.3189    6.1763    3.1169 H       1  LIG1        0.0000
     11 C           0.7158    8.3008    0.8685 C.ar    1  LIG1        0.0000
     12 C           0.3394    9.1403    1.9011 C.ar    1  LIG1        0.0000
     13 C          -0.9759    9.4376    2.2312 C.ar    1  LIG1        0.0000
     14 C          -1.9899    8.8620    1.5061 C.ar    1  LIG1        0.0000
     15 C           2.2041    5.5113    0.8596 C.3     1  LIG1        0.0000
     16 H           2.2446    5.3797   -0.1103 H       1  LIG1        0.0000
     17 H           1.2680    5.5664    1.1427 H       1  LIG1        0.0000
     18 H           2.6385    4.7570    1.3099 H       1  LIG1        0.0000
     19 C           4.3287    6.6557    0.7969 C.3     1  LIG1        0.0000
     20 H           4.7441    5.8944    1.2542 H       1  LIG1        0.0000
     21 H           4.8072    7.4778    1.0313 H       1  LIG1        0.0000
     22 H           4.3718    6.5172   -0.1726 H       1  LIG1        0.0000
     23 C          -0.3538    7.7663    0.1659 C.ar    1  LIG1        0.0000
     24 C          -1.6797    8.0264    0.4623 C.ar    1  LIG1        0.0000
     25 B           2.2681    8.0565    0.4477 B       1  LIG1        0.0000
     26 H           2.7971    8.8637    0.6664 H       1  LIG1        0.0000
     27 H           2.3226    7.9110   -0.5299 H       1  LIG1        0.0000
@<TRIPOS>BOND
     1     5    23    1
     2    27    25    1
     3     4    24    1
     4    22    19    1
     5    16    15    1
     6    23    24   ar
     7    23    11   ar
     8    25    26    1
     9    25    11    1
    10    25     6    1
    11    24    14   ar
    12    19    21    1
    13    19     6    1
    14    19    20    1
    15    15    17    1
    16    15     6    1
    17    15    18    1
    18    11    12   ar
    19     6     7    1
    20    14     1    1
    21    14    13   ar
    22    12    13   ar
    23    12     3    1
    24    13     2    1
    25     7     9    1
    26     7     8    1
    27     7    10    1
