@<TRIPOS>MOLECULE
?
 20 19 0 0 0
SMALL
GASTEIGER

@<TRIPOS>ATOM
      1 C           2.1607    5.6091    7.7367 C.2     1  LIG1        0.3225
      2 C           2.1532    5.2378    9.1038 C.2     1  LIG1        0.0842
      3 H           2.1851    5.9014    9.7826 H       1  LIG1        0.0863
      4 C           2.0801    2.9862    8.4738 C.3     1  LIG1        0.1075
      5 H           2.0502    2.0649    8.7036 H       1  LIG1        0.0604
      6 C           2.1032    3.3975    7.1564 C.2     1  LIG1        0.1405
      7 H           2.0915    2.7285    6.4827 H       1  LIG1        0.1098
      8 C           2.0398    3.5564   10.8542 C.3     1  LIG1        0.0012
      9 H           2.7949    3.9554   11.3350 H       1  LIG1        0.0428
     10 H           2.0853    2.5802   10.9278 H       1  LIG1        0.0428
     11 H           1.1990    3.8744   11.2451 H       1  LIG1        0.0428
     12 N           2.1415    4.6688    6.7686 N.2     1  LIG1       -0.0514
     13 N           2.1007    3.9497    9.4229 N.pl3   1  LIG1       -0.3205
     14 N           2.1985    6.8961    7.3770 N.pl3   1  LIG1       -0.2456
     15 N          -0.9214    4.4926    9.3813 N.pl3   2  LIG2        0.2601
     16 O          -0.9458    4.6807    8.1494 O.2     2  LIG2       -0.0867
     17 O          -0.7639    5.4624   10.1637 O.2     2  LIG2       -0.0867
     18 O          -1.0414    3.3359    9.8440 O.2     2  LIG2       -0.0867
     19 H           2.2144    7.0894    6.5794 H       1  LIG1        0.2885
     20 H           2.1251    7.5215    7.9723 H       1  LIG1        0.2885
@<TRIPOS>BOND
     1     7     6    1
     2    19    14    1
     3    12     6    2
     4    12     1    1
     5     6     4    1
     6    14     1    1
     7    14    20    1
     8     1     2    2
     9    16    15    2
    10     4     5    1
    11     4    13    1
    12     2    13    1
    13     2     3    1
    14    15    18    2
    15    15    17    1
    16    13     8    1
    17     8    10    1
    18     8    11    1
    19     8     9    1
