@<TRIPOS>MOLECULE
?
 20 20 0 0 0
SMALL
GASTEIGER

@<TRIPOS>ATOM
      1 S           1.6388   10.1524    1.2058 S.3     1  LIG1       -0.1358
      2 O           0.3377    8.8953    3.5183 O.2     1  LIG1       -0.2446
      3 O          -1.6966    8.6729    2.6607 O.3     1  LIG1       -0.4768
      4 C          -0.4335    9.0399    2.5866 C.2     1  LIG1        0.3429
      5 C          -0.0306    9.6399    1.3056 C.2     1  LIG1        0.0893
      6 C          -0.9310    9.7592    0.3185 C.2     1  LIG1       -0.0345
      7 H          -1.7726    9.4314    0.5391 H       1  LIG1        0.0637
      8 C          -0.8484   10.3041   -1.0348 C.ar    1  LIG1       -0.0238
      9 C          -1.9881   10.2418   -1.8217 C.ar    1  LIG1       -0.0546
     10 H          -2.7543    9.8448   -1.4751 H       1  LIG1        0.0623
     11 C          -2.0191   10.7458   -3.0993 C.ar    1  LIG1       -0.0612
     12 H          -2.8030   10.6980   -3.5975 H       1  LIG1        0.0618
     13 C          -0.9023   11.3174   -3.6392 C.ar    1  LIG1       -0.0617
     14 H          -0.9155   11.6517   -4.5071 H       1  LIG1        0.0618
     15 C           0.2347   11.3931   -2.8863 C.ar    1  LIG1       -0.0612
     16 H           0.9973   11.7835   -3.2483 H       1  LIG1        0.0618
     17 C           0.2722   10.9023   -1.6012 C.ar    1  LIG1       -0.0546
     18 H           1.0560   10.9698   -1.1055 H       1  LIG1        0.0623
     19 H          -1.8349    8.2685    3.5260 H       1  LIG1        0.2954
     20 H           1.9916    9.6801    2.3839 H       1  LIG1        0.1073
@<TRIPOS>BOND
     1    14    13    1
     2    13    11   ar
     3    13    15   ar
     4    12    11    1
     5    16    15    1
     6    11     9   ar
     7    15    17   ar
     8     9    10    1
     9     9     8   ar
    10    17    18    1
    11    17     8   ar
    12     8     6    1
    13     6     7    1
    14     6     5    2
    15     1     5    1
    16     1    20    1
    17     5     4    1
    18     4     3    1
    19     4     2    2
    20     3    19    1
