@<TRIPOS>MOLECULE
cyclophosphazene
 35 36 0 0 0
SMALL
GASTEIGER

@<TRIPOS>ATOM
      1 P           3.6553   -0.1714    5.3485 P.3     1  LIG1        0.5237
      2 P           2.4551    2.2261    4.8087 P.3     1  LIG1        0.5241
      3 P           2.7032    0.3395    2.8215 P.3     1  LIG1        0.5636
      4 N           3.2510    1.2917    5.7967 N.3     1  LIG1        0.2206
      5 N           2.0395    1.6599    3.3984 N.3     1  LIG1        0.2349
      6 N           3.4646   -0.5940    3.8475 N.3     1  LIG1        0.2349
      7 O           5.1201   -0.4884    5.7654 O.3     1  LIG1       -0.1761
      8 O           3.3014    3.5505    4.6384 O.3     1  LIG1       -0.1666
      9 O           3.7414    0.7010    1.6820 O.3     1  LIG1       -0.1571
     10 O           1.6314   -0.4773    1.9877 O.3     1  LIG1       -0.1667
     11 CL          2.5858   -1.4751    6.4724 Cl      1  LIG1        0.1764
     12 CL          0.8111    2.8685    5.7387 Cl      1  LIG1        0.1764
     13 F           5.3574    5.0782    3.8013 F       1  LIG1       -0.1962
     14 F           4.4086    5.4923    1.8709 F       1  LIG1       -0.1962
     15 F           5.4006    2.3910    3.1865 F       1  LIG1       -0.1923
     16 F           6.5684    3.8239    2.0107 F       1  LIG1       -0.1923
     17 F           5.8908    1.8942    0.5605 F       1  LIG1       -0.1962
     18 F           4.7445    3.6563   -0.0247 F       1  LIG1       -0.1962
     19 C           5.5685   -0.1761    7.1187 C.3     1  LIG1        0.0868
     20 H           5.4071    0.7720    7.3059 H       1  LIG1        0.0569
     21 H           6.5267   -0.3663    7.1976 H       1  LIG1        0.0569
     22 H           5.0726   -0.7254    7.7614 H       1  LIG1        0.0569
     23 C           3.1729    4.3669    3.4708 C.3     1  LIG1        0.1668
     24 H           2.7877    5.2456    3.7153 H       1  LIG1        0.0668
     25 H           2.5657    3.9317    2.8207 H       1  LIG1        0.0668
     26 C           4.5391    4.5585    2.8497 C.3     1  LIG1        0.3434
     27 C           5.3144    3.3586    2.2481 C.3     1  LIG1        0.3765
     28 C           4.8574    2.6871    0.9202 C.3     1  LIG1        0.3434
     29 C           3.5775    1.8666    0.8715 C.3     1  LIG1        0.1679
     30 H           2.8180    2.4060    1.2074 H       1  LIG1        0.0668
     31 H           3.3822    1.6019   -0.0616 H       1  LIG1        0.0668
     32 C           0.4394   -0.8774    2.6132 C.3     1  LIG1        0.0879
     33 H           0.6438   -1.5163    3.3274 H       1  LIG1        0.0569
     34 H          -0.1492   -1.3002    1.9546 H       1  LIG1        0.0569
     35 H          -0.0081   -0.0929    2.9951 H       1  LIG1        0.0569
@<TRIPOS>BOND
     1    31    29    1
     2    18    28    1
     3    17    28    1
     4    29    28    1
     5    29    30    1
     6    29     9    1
     7    28    27    1
     8     9     3    1
     9    14    26    1
    10    34    32    1
    11    10    32    1
    12    10     3    1
    13    16    27    1
    14    27    26    1
    15    27    15    1
    16    32    35    1
    17    32    33    1
    18    25    23    1
    19     3     5    1
    20     3     6    1
    21    26    23    1
    22    26    13    1
    23     5     2    1
    24    23    24    1
    25    23     8    1
    26     6     1    1
    27     8     2    1
    28     2    12    1
    29     2     4    1
    30     1     7    1
    31     1     4    1
    32     1    11    1
    33     7    19    1
    34    19    21    1
    35    19    20    1
    36    19    22    1
