@<TRIPOS>MOLECULE
?
 79 82 0 0 0
SMALL
GASTEIGER

@<TRIPOS>ATOM
      1 P           4.4674   -1.1821    7.8033 P.3     1  LIG1        0.0851
      2 P           6.7804    3.2035   12.5633 P.3     1  LIG1       -0.0438
      3 C           4.5314    0.4103    8.6468 C.3     1  LIG1        0.0706
      4 H           4.4755    1.1339    7.9730 H       1  LIG1        0.0709
      5 H           3.7460    0.4907    9.2440 H       1  LIG1        0.0709
      6 C           5.8062    0.5976    9.4740 C.3     1  LIG1       -0.0178
      7 H           6.0117   -0.2446    9.9535 H       1  LIG1        0.0301
      8 H           6.5631    0.7956    8.8677 H       1  LIG1        0.0301
      9 C           5.6607    1.7289   10.4851 C.3     1  LIG1       -0.0453
     10 H           5.0493    1.4435   11.2107 H       1  LIG1        0.0270
     11 H           5.2578    2.5154   10.0402 H       1  LIG1        0.0270
     12 C           7.0148    2.1278   11.0913 C.3     1  LIG1       -0.0243
     13 H           7.5510    2.6091   10.4126 H       1  LIG1        0.0319
     14 H           7.5113    1.3133   11.3545 H       1  LIG1        0.0319
     15 C           3.9973   -2.4529    9.0072 C.3     1  LIG1        0.0951
     16 H           3.8579   -3.3079    8.5267 H       1  LIG1        0.0760
     17 H           4.7471   -2.5837    9.6401 H       1  LIG1        0.0760
     18 C           2.7540   -2.1326    9.7934 C.ar    1  LIG1       -0.0097
     19 C           2.8690   -1.5718   11.0757 C.ar    1  LIG1       -0.0551
     20 H           3.7297   -1.3641   11.4196 H       1  LIG1        0.0621
     21 C           1.7560   -1.3212   11.8377 C.ar    1  LIG1       -0.0614
     22 H           1.8516   -0.9385   12.7024 H       1  LIG1        0.0618
     23 C           0.4904   -1.6230   11.3508 C.ar    1  LIG1       -0.0617
     24 H          -0.2798   -1.4626   11.8846 H       1  LIG1        0.0618
     25 C           0.3602   -2.1677   10.0719 C.ar    1  LIG1       -0.0614
     26 H          -0.5026   -2.3662    9.7268 H       1  LIG1        0.0618
     27 C           1.4854   -2.4192    9.3024 C.ar    1  LIG1       -0.0551
     28 H           1.3897   -2.7902    8.4322 H       1  LIG1        0.0621
     29 C           6.0829   -1.6219    7.1594 C.ar    1  LIG1        0.1014
     30 C           6.6272   -0.8645    6.1250 C.ar    1  LIG1       -0.0192
     31 H           6.1226   -0.1588    5.7384 H       1  LIG1        0.0657
     32 C           7.8979   -1.1373    5.6617 C.ar    1  LIG1       -0.0581
     33 H           8.2703   -0.6177    4.9600 H       1  LIG1        0.0619
     34 C           8.6284   -2.1715    6.2241 C.ar    1  LIG1       -0.0615
     35 H           9.5023   -2.3614    5.9019 H       1  LIG1        0.0618
     36 C           8.0994   -2.9229    7.2435 C.ar    1  LIG1       -0.0581
     37 H           8.6081   -3.6271    7.6282 H       1  LIG1        0.0619
     38 C           6.8195   -2.6552    7.7139 C.ar    1  LIG1       -0.0192
     39 H           6.4502   -3.1808    8.4144 H       1  LIG1        0.0657
     40 C           3.2861   -1.0784    6.4596 C.ar    1  LIG1        0.1014
     41 C           2.3023   -0.0910    6.4620 C.ar    1  LIG1       -0.0192
     42 H           2.2596    0.5383    7.1729 H       1  LIG1        0.0657
     43 C           1.3816   -0.0321    5.4168 C.ar    1  LIG1       -0.0581
     44 H           0.7152    0.6447    5.4093 H       1  LIG1        0.0619
     45 C           1.4386   -0.9468    4.4013 C.ar    1  LIG1       -0.0615
     46 H           0.8058   -0.9084    3.6949 H       1  LIG1        0.0618
     47 C           2.4041   -1.9183    4.3995 C.ar    1  LIG1       -0.0581
     48 H           2.4326   -2.5551    3.6949 H       1  LIG1        0.0619
     49 C           3.3462   -1.9811    5.4248 C.ar    1  LIG1       -0.0192
     50 H           4.0258   -2.6441    5.4093 H       1  LIG1        0.0657
     51 C           6.0046    4.6760   11.7920 C.ar    1  LIG1       -0.0190
     52 C           4.8336    5.1532   12.3653 C.ar    1  LIG1       -0.0538
     53 H           4.4663    4.7069   13.1182 H       1  LIG1        0.0624
     54 C           4.1916    6.2727   11.8553 C.ar    1  LIG1       -0.0612
     55 H           3.3940    6.5871   12.2650 H       1  LIG1        0.0618
     56 C           4.6972    6.9222   10.7720 C.ar    1  LIG1       -0.0617
     57 H           4.2557    7.6892   10.4264 H       1  LIG1        0.0618
     58 C           5.8774    6.4506   10.1690 C.ar    1  LIG1       -0.0612
     59 H           6.2355    6.8968    9.4096 H       1  LIG1        0.0618
     60 C           6.5173    5.3374   10.6812 C.ar    1  LIG1       -0.0538
     61 H           7.3139    5.0213   10.2707 H       1  LIG1        0.0624
     62 C           8.4626    3.8788   12.8768 C.ar    1  LIG1       -0.0190
     63 C           9.5674    3.6820   12.0590 C.ar    1  LIG1       -0.0538
     64 H           9.4799    3.1649   11.2678 H       1  LIG1        0.0624
     65 C          10.8117    4.2369   12.3873 C.ar    1  LIG1       -0.0612
     66 H          11.5574    4.1019   11.8157 H       1  LIG1        0.0618
     67 C          10.9521    4.9761   13.5381 C.ar    1  LIG1       -0.0617
     68 H          11.7986    5.3437   13.7665 H       1  LIG1        0.0618
     69 C           9.8574    5.1860   14.3660 C.ar    1  LIG1       -0.0612
     70 H           9.9500    5.7090   15.1538 H       1  LIG1        0.0618
     71 C           8.6294    4.6318   14.0420 C.ar    1  LIG1       -0.0538
     72 H           7.8888    4.7657   14.6218 H       1  LIG1        0.0624
     73 P           8.4298    2.0508    2.9208 P.3     2  LIG2        0.6235
     74 F           9.4024    0.7935    2.7667 F       2  LIG2       -0.1039
     75 F           7.4324    3.2769    3.0584 F       2  LIG2       -0.1039
     76 F           8.8319    2.1432    4.4455 F       2  LIG2       -0.1039
     77 F           7.9956    1.9330    1.3989 F       2  LIG2       -0.1039
     78 F           7.2485    1.0726    3.3336 F       2  LIG2       -0.1039
     79 F           9.6015    3.0152    2.5176 F       2  LIG2       -0.1039
@<TRIPOS>BOND
     1    77    73    1
     2    79    73    1
     3    74    73    1
     4    73    75    1
     5    73    78    1
     6    73    76    1
     7    46    45    1
     8    48    47    1
     9    47    45   ar
    10    47    49   ar
    11    45    43   ar
    12    33    32    1
    13    50    49    1
    14    44    43    1
    15    43    41   ar
    16    49    40   ar
    17    32    30   ar
    18    32    34   ar
    19    31    30    1
    20    35    34    1
    21    30    29   ar
    22    34    36   ar
    23    40    41   ar
    24    40     1    1
    25    41    42    1
    26    29    38   ar
    27    29     1    1
    28    36    37    1
    29    36    38   ar
    30    38    39    1
    31     1     3    1
    32     1    15    1
    33     4     3    1
    34    28    27    1
    35    16    15    1
    36     3     5    1
    37     3     6    1
    38     8     6    1
    39    15    17    1
    40    15    18    1
    41    27    18   ar
    42    27    25   ar
    43    59    58    1
    44     6     7    1
    45     6     9    1
    46    26    25    1
    47    18    19   ar
    48    11     9    1
    49    25    23   ar
    50    58    60   ar
    51    58    56   ar
    52    61    60    1
    53    13    12    1
    54    57    56    1
    55     9    12    1
    56     9    10    1
    57    60    51   ar
    58    56    54   ar
    59    19    20    1
    60    19    21   ar
    61    12    14    1
    62    12     2    1
    63    64    63    1
    64    23    21   ar
    65    23    24    1
    66    51    52   ar
    67    51     2    1
    68    66    65    1
    69    21    22    1
    70    54    55    1
    71    54    52   ar
    72    63    65   ar
    73    63    62   ar
    74    52    53    1
    75    65    67   ar
    76     2    62    1
    77    62    71   ar
    78    67    68    1
    79    67    69   ar
    80    71    69   ar
    81    71    72    1
    82    69    70    1
