@<TRIPOS>MOLECULE
2,6-(2,4,6-trimethylphenyl)azidobenzene
 52 54 0 0 0
SMALL
GASTEIGER

@<TRIPOS>ATOM
      1 N           3.7755    3.7224    7.4048 N.2     1  LIG1        0.1612
      2 N           3.4183    3.4486    8.5423 N.2     1  LIG1        0.2601
      3 N           2.8816    3.2432    9.5131 N.2     1  LIG1        0.3547
      4 C           5.1541    3.7470    7.0255 C.ar    1  LIG1        0.1665
      5 C           5.4243    4.5513    5.9163 C.ar    1  LIG1        0.0155
      6 C           6.7299    4.6061    5.4407 C.ar    1  LIG1       -0.0517
      7 H           6.9315    5.1527    4.6895 H       1  LIG1        0.0624
      8 C           7.7384    3.8795    6.0432 C.ar    1  LIG1       -0.0605
      9 H           8.6254    3.9187    5.7045 H       1  LIG1        0.0618
     10 C           7.4472    3.0969    7.1403 C.ar    1  LIG1       -0.0517
     11 H           8.1474    2.6086    7.5574 H       1  LIG1        0.0624
     12 C           6.1590    3.0022    7.6541 C.ar    1  LIG1        0.0155
     13 C           4.3619    5.3939    5.2964 C.ar    1  LIG1       -0.0098
     14 C           3.4607    4.8411    4.3777 C.ar    1  LIG1       -0.0422
     15 C           2.5164    5.6771    3.7918 C.ar    1  LIG1       -0.0553
     16 H           1.9071    5.3110    3.1621 H       1  LIG1        0.0623
     17 C           2.4334    7.0277    4.0954 C.ar    1  LIG1       -0.0499
     18 C           3.3192    7.5420    5.0232 C.ar    1  LIG1       -0.0553
     19 H           3.2636    8.4618    5.2547 H       1  LIG1        0.0623
     20 C           4.2873    6.7513    5.6267 C.ar    1  LIG1       -0.0422
     21 C           5.8854    2.1496    8.8501 C.ar    1  LIG1       -0.0098
     22 C           5.3178    0.8825    8.6991 C.ar    1  LIG1       -0.0422
     23 C           5.0210    0.1407    9.8376 C.ar    1  LIG1       -0.0553
     24 H           4.6152   -0.7122    9.7376 H       1  LIG1        0.0623
     25 C           5.2985    0.6067   11.1115 C.ar    1  LIG1       -0.0499
     26 C           5.9032    1.8439   11.2330 C.ar    1  LIG1       -0.0553
     27 H           6.1243    2.1660   12.0994 H       1  LIG1        0.0623
     28 C           6.1971    2.6329   10.1263 C.ar    1  LIG1       -0.0422
     29 C           3.5084    3.3865    4.0223 C.3     1  LIG1       -0.0391
     30 H           2.7511    3.1684    3.4411 H       1  LIG1        0.0278
     31 H           3.4596    2.8489    4.8397 H       1  LIG1        0.0278
     32 H           4.3472    3.1919    3.5529 H       1  LIG1        0.0278
     33 C           1.4210    7.9172    3.4313 C.3     1  LIG1       -0.0397
     34 H           0.5884    7.9078    3.9482 H       1  LIG1        0.0278
     35 H           1.2457    7.5913    2.5236 H       1  LIG1        0.0278
     36 H           1.7678    8.8340    3.3893 H       1  LIG1        0.0278
     37 C           5.2373    7.3641    6.6149 C.3     1  LIG1       -0.0391
     38 H           6.1201    7.4653    6.1999 H       1  LIG1        0.0278
     39 H           5.3111    6.7823    7.4009 H       1  LIG1        0.0278
     40 H           4.9021    8.2449    6.8885 H       1  LIG1        0.0278
     41 C           5.0544    0.3051    7.3337 C.3     1  LIG1       -0.0391
     42 H           5.9060    0.1407    6.8787 H       1  LIG1        0.0278
     43 H           4.5210    0.9379    6.8089 H       1  LIG1        0.0278
     44 H           4.5634   -0.5393    7.4251 H       1  LIG1        0.0278
     45 C           4.9485   -0.2043   12.3334 C.3     1  LIG1       -0.0397
     46 H           4.3656    0.3224   12.9194 H       1  LIG1        0.0278
     47 H           5.7684   -0.4397   12.8148 H       1  LIG1        0.0278
     48 H           4.4825   -1.0229   12.0600 H       1  LIG1        0.0278
     49 C           6.8241    3.9867   10.3122 C.3     1  LIG1       -0.0391
     50 H           6.7683    4.2470   11.2561 H       1  LIG1        0.0278
     51 H           6.3478    4.6456    9.7644 H       1  LIG1        0.0278
     52 H           7.7644    3.9510   10.0381 H       1  LIG1        0.0278
@<TRIPOS>BOND
     1    35    33    1
     2    16    15    1
     3    36    33    1
     4    33    34    1
     5    33    17    1
     6    30    29    1
     7    32    29    1
     8    15    17   ar
     9    15    14   ar
    10    29    14    1
    11    29    31    1
    12    17    18   ar
    13    14    13   ar
    14     7     6    1
    15    18    19    1
    16    18    20   ar
    17    13    20   ar
    18    13     5    1
    19     6     5   ar
    20     6     8   ar
    21    20    37    1
    22     9     8    1
    23     5     4   ar
    24     8    10   ar
    25    38    37    1
    26    37    40    1
    27    37    39    1
    28    43    41    1
    29    42    41    1
    30     4     1    1
    31     4    12   ar
    32    10    11    1
    33    10    12   ar
    34    41    44    1
    35    41    22    1
    36     1     2    2
    37    12    21    1
    38     2     3    2
    39    22    21   ar
    40    22    23   ar
    41    21    28   ar
    42    24    23    1
    43    51    49    1
    44    23    25   ar
    45    52    49    1
    46    28    49    1
    47    28    26   ar
    48    49    50    1
    49    25    26   ar
    50    25    45    1
    51    26    27    1
    52    48    45    1
    53    45    47    1
    54    45    46    1
