@<TRIPOS>MOLECULE
?
 66 70 0 0 0
SMALL
GASTEIGER

@<TRIPOS>ATOM
      1 P           6.2892   26.7461    3.7825 P.3     1  LIG1       -0.0576
      2 P           6.1850   22.0583    5.3536 P.3     1  LIG1       -0.0576
      3 C           8.7816   25.4186    4.0261 C.ar    1  LIG1       -0.0096
      4 C           8.0074   21.9251    5.2454 C.ar    1  LIG1       -0.0143
      5 C           5.6261   20.3877    5.8325 C.ar    1  LIG1       -0.0162
      6 C           8.1145   26.6223    3.6213 C.ar    1  LIG1       -0.0143
      7 C           8.7311   23.0855    4.8097 C.ar    1  LIG1       -0.0096
      8 C          10.1526   23.0028    4.6476 C.ar    1  LIG1       -0.0167
      9 C          10.1038   20.6986    5.3720 C.ar    1  LIG1       -0.0606
     10 H          10.5603   19.8918    5.5802 H       1  LIG1        0.0618
     11 C           4.7599   29.6848    1.3502 C.ar    1  LIG1       -0.0553
     12 H           4.3749   30.5461    1.4690 H       1  LIG1        0.0623
     13 C           8.6933   20.7702    5.5246 C.ar    1  LIG1       -0.0535
     14 H           8.2165   20.0046    5.8252 H       1  LIG1        0.0624
     15 C           5.2391   29.0074    2.4667 C.ar    1  LIG1       -0.0423
     16 C           5.4373   20.0503    7.1858 C.ar    1  LIG1       -0.0423
     17 C           4.6852   18.2571    5.2060 C.ar    1  LIG1       -0.0553
     18 H           4.4477   17.6329    4.5302 H       1  LIG1        0.0623
     19 C           8.0841   24.2960    4.5135 C.ar    1  LIG1       -0.0451
     20 H           7.1459   24.3598    4.6462 H       1  LIG1        0.0630
     21 C           4.8344   18.8369    7.5046 C.ar    1  LIG1       -0.0553
     22 H           4.6897   18.6194    8.4188 H       1  LIG1        0.0623
     23 C           5.8082   27.7329    2.3072 C.ar    1  LIG1       -0.0162
     24 C           5.2697   19.4642    4.8352 C.ar    1  LIG1       -0.0423
     25 C          10.8536   24.1320    4.2223 C.ar    1  LIG1       -0.0463
     26 H          11.7994   24.0843    4.1478 H       1  LIG1        0.0630
     27 C          10.7994   21.7679    4.9332 C.ar    1  LIG1       -0.0540
     28 H          11.7384   21.6942    4.8131 H       1  LIG1        0.0624
     29 C          10.2075   25.3389    3.9009 C.ar    1  LIG1       -0.0167
     30 C           8.8563   27.6754    3.1540 C.ar    1  LIG1       -0.0535
     31 H           8.4155   28.4735    2.8907 H       1  LIG1        0.0624
     32 C          10.9162   26.4720    3.4191 C.ar    1  LIG1       -0.0540
     33 H          11.8634   26.4376    3.3512 H       1  LIG1        0.0624
     34 C          10.2647   27.5983    3.0552 C.ar    1  LIG1       -0.0606
     35 H          10.7562   28.3449    2.7321 H       1  LIG1        0.0618
     36 C           4.8228   29.1575    0.0788 C.ar    1  LIG1       -0.0499
     37 C           4.4393   17.9368    6.5315 C.ar    1  LIG1       -0.0499
     38 C           5.8913   27.1838    1.0180 C.ar    1  LIG1       -0.0423
     39 C           5.3957   27.9042   -0.0637 C.ar    1  LIG1       -0.0553
     40 H           5.4526   27.5238   -0.9316 H       1  LIG1        0.0623
     41 C           5.9062   20.9510    8.3062 C.3     1  LIG1       -0.0391
     42 H           5.3409   21.7493    8.3418 H       1  LIG1        0.0278
     43 H           6.8366   21.2167    8.1453 H       1  LIG1        0.0278
     44 H           5.8468   20.4716    9.1586 H       1  LIG1        0.0278
     45 C           5.5180   19.7331    3.3729 C.3     1  LIG1       -0.0391
     46 H           5.3495   18.9159    2.8575 H       1  LIG1        0.0278
     47 H           6.4482   20.0125    3.2458 H       1  LIG1        0.0278
     48 H           4.9175   20.4428    3.0647 H       1  LIG1        0.0278
     49 C           4.3100   29.9367   -1.1034 C.3     1  LIG1       -0.0397
     50 H           3.6079   30.5540   -0.8085 H       1  LIG1        0.0278
     51 H           3.9427   29.3183   -1.7685 H       1  LIG1        0.0278
     52 H           5.0456   30.4464   -1.5034 H       1  LIG1        0.0278
     53 C           5.1447   29.6696    3.8189 C.3     1  LIG1       -0.0391
     54 H           4.8110   30.5855    3.7122 H       1  LIG1        0.0278
     55 H           6.0325   29.6908    4.2342 H       1  LIG1        0.0278
     56 H           4.5306   29.1635    4.3893 H       1  LIG1        0.0278
     57 C           3.7929   16.6237    6.9059 C.3     1  LIG1       -0.0397
     58 H           3.4299   16.1979    6.1010 H       1  LIG1        0.0278
     59 H           3.0670   16.7882    7.5440 H       1  LIG1        0.0278
     60 H           4.4614   16.0352    7.3143 H       1  LIG1        0.0278
     61 C           6.5114   25.8295    0.7706 C.3     1  LIG1       -0.0391
     62 H           6.4453   25.6086   -0.1811 H       1  LIG1        0.0278
     63 H           6.0373   25.1521    1.2974 H       1  LIG1        0.0278
     64 H           7.4546   25.8499    1.0370 H       1  LIG1        0.0278
     65 H           5.9432   25.5613    3.1369 H       1  LIG1        0.0671
     66 H           6.0031   22.8407    6.3567 H       1  LIG1        0.0671
@<TRIPOS>BOND
     1    51    49    1
     2    52    49    1
     3    49    50    1
     4    49    36    1
     5    40    39    1
     6    62    61    1
     7    39    36   ar
     8    39    38   ar
     9    36    11   ar
    10    61    38    1
    11    61    64    1
    12    61    63    1
    13    38    23   ar
    14    11    12    1
    15    11    15   ar
    16    23    15   ar
    17    23     1    1
    18    15    53    1
    19    35    34    1
    20    46    45    1
    21    31    30    1
    22    34    30   ar
    23    34    32   ar
    24    48    45    1
    25    65     1    1
    26    30     6   ar
    27    47    45    1
    28    33    32    1
    29    45    24    1
    30    32    29   ar
    31     6     1    1
    32     6     3   ar
    33    54    53    1
    34    53    55    1
    35    53    56    1
    36    29     3   ar
    37    29    25   ar
    38     3    19   ar
    39    26    25    1
    40    25     8   ar
    41    19    20    1
    42    19     7   ar
    43    18    17    1
    44     8     7   ar
    45     8    27   ar
    46     7     4   ar
    47    28    27    1
    48    24    17   ar
    49    24     5   ar
    50    27     9   ar
    51    17    37   ar
    52     4     2    1
    53     4    13   ar
    54     2     5    1
    55     2    66    1
    56     9    13   ar
    57     9    10    1
    58    13    14    1
    59     5    16   ar
    60    58    57    1
    61    37    57    1
    62    37    21   ar
    63    57    60    1
    64    57    59    1
    65    16    21   ar
    66    16    41    1
    67    21    22    1
    68    43    41    1
    69    41    42    1
    70    41    44    1
