@<TRIPOS>MOLECULE
2,6-Dimethyl-N-(2-pyridinylmethylene)phenylamine
 60 62 0 0 0
SMALL
GASTEIGER

@<TRIPOS>ATOM
      1 N           5.3261    6.5148    2.2199 N.2     1  LIG1       -0.2529
      2 N           7.5754    8.9729    3.3761 N.ar    1  LIG1       -0.2540
      3 N           0.2514    1.9243    2.0593 N.2     2  LIG2       -0.2529
      4 N           2.3745   -0.5082    3.4739 N.ar    2  LIG2       -0.2540
      5 C           4.3761    2.5274    2.9705 C.ar    1  LIG1       -0.0611
      6 H           4.1503    1.6169    3.1221 H       1  LIG1        0.0618
      7 C           5.3614    2.8557    2.0656 C.ar    1  LIG1       -0.0568
      8 H           5.8200    2.1655    1.6022 H       1  LIG1        0.0621
      9 C           5.6943    4.1781    1.8202 C.ar    1  LIG1       -0.0248
     10 C           5.0213    5.1655    2.5341 C.ar    1  LIG1        0.0697
     11 C           6.1733    7.1238    2.9076 C.2     1  LIG1        0.0536
     12 H           6.5357    6.6938    3.6744 H       1  LIG1        0.0851
     13 C           6.6302    8.4822    2.5731 C.ar    1  LIG1        0.0819
     14 C           6.1570    9.1621    1.4806 C.ar    1  LIG1       -0.0348
     15 H           5.4773    8.7828    0.9343 H       1  LIG1        0.0639
     16 C           6.6817   10.4031    1.1844 C.ar    1  LIG1       -0.0583
     17 H           6.3754   10.8915    0.4289 H       1  LIG1        0.0619
     18 C           7.6493   10.9158    2.0006 C.ar    1  LIG1       -0.0436
     19 H           8.0291   11.7695    1.8274 H       1  LIG1        0.0633
     20 C           3.7239    3.5249    3.6517 C.ar    1  LIG1       -0.0568
     21 H           3.0473    3.2918    4.2777 H       1  LIG1        0.0621
     22 C           4.0228    4.8514    3.4537 C.ar    1  LIG1       -0.0248
     23 C           3.2817    5.9085    4.2162 C.3     1  LIG1       -0.0377
     24 H           2.5266    6.2298    3.6803 H       1  LIG1        0.0278
     25 H           3.8859    6.6543    4.4109 H       1  LIG1        0.0278
     26 H           2.9464    5.5304    5.0573 H       1  LIG1        0.0278
     27 C           8.0571   10.1758    3.0669 C.ar    1  LIG1        0.0283
     28 H           8.7305   10.5423    3.6294 H       1  LIG1        0.0830
     29 C           6.7431    4.5364    0.8244 C.3     1  LIG1       -0.0377
     30 H           7.0632    3.7233    0.3819 H       1  LIG1        0.0278
     31 H           7.4903    4.9760    1.2810 H       1  LIG1        0.0278
     32 H           6.3644    5.1453    0.1567 H       1  LIG1        0.0278
     33 C          -0.5373    5.9514    2.7799 C.ar    2  LIG2       -0.0611
     34 H          -0.7095    6.8724    2.9380 H       2  LIG2        0.0618
     35 C           0.3413    5.5738    1.7888 C.ar    2  LIG2       -0.0568
     36 H           0.7655    6.2391    1.2594 H       2  LIG2        0.0621
     37 C           0.6151    4.2418    1.5548 C.ar    2  LIG2       -0.0248
     38 C          -0.0261    3.2901    2.3469 C.ar    2  LIG2        0.0697
     39 C           1.0007    1.3012    2.8573 C.2     2  LIG2        0.0536
     40 H           1.2767    1.7364    3.6549 H       2  LIG2        0.0851
     41 C           1.4636   -0.0647    2.6083 C.ar    2  LIG2        0.0819
     42 C           2.8767   -1.7220    3.2439 C.ar    2  LIG2        0.0283
     43 H           3.5347   -2.0519    3.8448 H       2  LIG2        0.0830
     44 C           2.5069   -2.5205    2.2008 C.ar    2  LIG2       -0.0436
     45 H           2.9027   -3.3753    2.0781 H       2  LIG2        0.0633
     46 C          -1.1623    5.0003    3.5350 C.ar    2  LIG2       -0.0568
     47 H          -1.7706    5.2729    4.2111 H       2  LIG2        0.0621
     48 C          -0.9339    3.6503    3.3409 C.ar    2  LIG2       -0.0248
     49 C          -1.6621    2.6260    4.1606 C.3     2  LIG2       -0.0377
     50 H          -1.0266    2.1644    4.7458 H       2  LIG2        0.0278
     51 H          -2.0915    1.9765    3.5648 H       2  LIG2        0.0278
     52 H          -2.3445    3.0703    4.7067 H       2  LIG2        0.0278
     53 C           1.5536   -2.0600    1.3399 C.ar    2  LIG2       -0.0583
     54 H           1.2655   -2.5935    0.6091 H       2  LIG2        0.0619
     55 C           1.0220   -0.8212    1.5485 C.ar    2  LIG2       -0.0348
     56 H           0.3513   -0.4837    0.9656 H       2  LIG2        0.0639
     57 C           1.6065    3.8288    0.5116 C.3     2  LIG2       -0.0377
     58 H           1.8100    4.5932   -0.0666 H       2  LIG2        0.0278
     59 H           1.2301    3.1027   -0.0274 H       2  LIG2        0.0278
     60 H           2.4296    3.5203    0.9460 H       2  LIG2        0.0278
@<TRIPOS>BOND
     1    58    57    1
     2    59    57    1
     3    32    29    1
     4    30    29    1
     5    17    16    1
     6    57    60    1
     7    57    37    1
     8    54    53    1
     9    29    31    1
    10    29     9    1
    11    15    14    1
    12    56    55    1
    13    16    14   ar
    14    16    18   ar
    15    36    35    1
    16    53    55   ar
    17    53    44   ar
    18    14    13   ar
    19    55    41   ar
    20    37    35   ar
    21    37    38   ar
    22     8     7    1
    23    35    33   ar
    24     9     7   ar
    25     9    10   ar
    26    19    18    1
    27    18    27   ar
    28     3    38    1
    29     3    39    2
    30     7     5   ar
    31    45    44    1
    32    44    42   ar
    33     1    10    1
    34     1    11    2
    35    38    48   ar
    36    10    22   ar
    37    13    11    1
    38    13     2   ar
    39    41    39    1
    40    41     4   ar
    41    33    34    1
    42    33    46   ar
    43    39    40    1
    44    11    12    1
    45     5     6    1
    46     5    20   ar
    47    27     2   ar
    48    27    28    1
    49    42     4   ar
    50    42    43    1
    51    48    46   ar
    52    48    49    1
    53    22    20   ar
    54    22    23    1
    55    46    47    1
    56    51    49    1
    57    20    21    1
    58    24    23    1
    59    49    52    1
    60    49    50    1
    61    23    25    1
    62    23    26    1
