@<TRIPOS>MOLECULE
?
 57 63 0 0 0
SMALL
GASTEIGER

@<TRIPOS>ATOM
      1 P          -0.7639    0.0946    3.7370 P.3     1  LIG1        0.0000
      2 N          -0.3755    0.6088    5.3289 N.pl3   1  LIG1        0.5000
      3 N           1.2087    1.3463    6.8495 N.2     1  LIG1        0.5000
      4 C           1.8146    1.0309    4.4284 C.3     1  LIG1        0.0000
      5 C           0.9378    0.5139    3.1523 C.3     1  LIG1        0.0000
      6 C           0.9228    1.0567    5.6566 C.2     1  LIG1        0.0000
      7 C          -1.2063    0.1005    6.4573 C.3     1  LIG1        0.0000
      8 H          -1.0547    0.7234    7.2050 H       1  LIG1        0.0000
      9 C          -2.6861    0.1226    6.1062 C.3     1  LIG1        0.0000
     10 H          -3.1997   -0.1875    6.8791 H       1  LIG1        0.0000
     11 H          -2.9846    0.9779    5.8488 H       1  LIG1        0.0000
     12 H          -2.9031   -0.5023    5.3755 H       1  LIG1        0.0000
     13 C          -0.7501   -1.2793    6.8702 C.3     1  LIG1        0.0000
     14 H           0.2042   -1.2659    7.1376 H       1  LIG1        0.0000
     15 H          -0.8679   -1.8888    6.1583 H       1  LIG1        0.0000
     16 H          -1.2878   -1.5941    7.6564 H       1  LIG1        0.0000
     17 C           2.5381    1.7709    7.3005 C.3     1  LIG1        0.0000
     18 H           3.1683    1.8285    6.6006 H       1  LIG1        0.0000
     19 C           3.0433    0.7461    8.3039 C.3     1  LIG1        0.0000
     20 H           2.4397    0.7167    9.0654 H       1  LIG1        0.0000
     21 H           3.9260    1.0047    8.6139 H       1  LIG1        0.0000
     22 H           3.1227   -0.1541    7.8876 H       1  LIG1        0.0000
     23 C           2.4093    3.1447    7.9326 C.3     1  LIG1        0.0000
     24 H           3.2841    3.4226    8.2790 H       1  LIG1        0.0000
     25 H           1.7708    3.1145    8.6722 H       1  LIG1        0.0000
     26 H           2.1294    3.7642    7.2923 H       1  LIG1        0.0000
     27 C          -1.7364    1.4591    3.0141 C.ar    1  LIG1        0.0000
     28 C          -2.0794    2.6403    3.6635 C.ar    1  LIG1        0.0000
     29 H          -1.7764    2.7997    4.5636 H       1  LIG1        0.0000
     30 C          -2.8659    3.5814    3.0202 C.ar    1  LIG1        0.0000
     31 H          -3.1011    4.3938    3.4951 H       1  LIG1        0.0000
     32 C          -3.3052    3.3590    1.7231 C.ar    1  LIG1        0.0000
     33 H          -3.8504    4.0388    1.2779 H       1  LIG1        0.0000
     34 C          -2.9721    2.1828    1.0749 C.ar    1  LIG1        0.0000
     35 H          -3.2601    2.0295    0.1893 H       1  LIG1        0.0000
     36 C          -2.2001    1.2324    1.7190 C.ar    1  LIG1        0.0000
     37 H          -1.9574    0.3818    1.2870 H       1  LIG1        0.0000
     38 B           2.0613   -0.5908    3.8513 B       1  LIG1        0.0000
     39 H           1.6287   -1.3664    4.4726 H       1  LIG1        0.0000
     40 B           3.4209    0.4360    4.3437 B       1  LIG1        0.0000
     41 H           3.9056    0.1875    5.2517 H       1  LIG1        0.0000
     42 B           3.0290    2.1333    3.9403 B       1  LIG1        0.0000
     43 H           3.2920    2.9069    4.5891 H       1  LIG1        0.0000
     44 B           1.4161    2.1795    3.2011 B       1  LIG1        0.0000
     45 H           0.6719    2.9069    3.4350 H       1  LIG1        0.0000
     46 B           1.4564    1.2277    1.6975 B       1  LIG1        0.0000
     47 H           0.6935    1.4400    0.9484 H       1  LIG1        0.0000
     48 B           2.8413    2.2465    2.1781 B       1  LIG1        0.0000
     49 H           3.0702    3.1681    1.6747 H       1  LIG1        0.0000
     50 B           4.0825    1.1775    2.8793 B       1  LIG1        0.0000
     51 H           5.1478    1.4133    2.8143 H       1  LIG1        0.0000
     52 B           3.4797   -0.4997    2.8296 B       1  LIG1        0.0000
     53 H           4.1024   -1.3530    2.7360 H       1  LIG1        0.0000
     54 B           1.8540   -0.4635    2.0969 B       1  LIG1        0.0000
     55 H           1.3404   -1.2525    1.6056 H       1  LIG1        0.0000
     56 B           3.1193    0.6276    1.4898 B       1  LIG1        0.0000
     57 H           3.5140    0.5090    0.4897 H       1  LIG1        0.0000
@<TRIPOS>BOND
     1    35    34    1
     2    57    56    1
     3    47    46    1
     4    34    36   ar
     5    34    32   ar
     6    33    32    1
     7    37    36    1
     8    56    46    1
     9    56    54    1
    10    56    50    1
    11    55    54    1
    12    49    48    1
    13    46     5    1
    14    46    44    1
    15    36    27   ar
    16    32    30   ar
    17    54     5    1
    18    54    38    1
    19    48    44    1
    20    53    52    1
    21    51    50    1
    22    52    38    1
    23    52    40    1
    24    50    42    1
    25    50    40    1
    26    27    28   ar
    27    27     1    1
    28    30    31    1
    29    30    28   ar
    30     5    38    1
    31     5     4    1
    32    44    45    1
    33    44    42    1
    34    28    29    1
    35     1     2    1
    36    38    39    1
    37    42     4    1
    38    42    43    1
    39    40     4    1
    40    40    41    1
    41     4     6    1
    42     2     6    1
    43     2     7    1
    44    12     9    1
    45     6     3    2
    46    11     9    1
    47     9     7    1
    48     9    10    1
    49    15    13    1
    50     7    13    1
    51     7     8    1
    52    18    17    1
    53     3    17    1
    54    13    14    1
    55    13    16    1
    56    26    23    1
    57    17    23    1
    58    17    19    1
    59    22    19    1
    60    23    24    1
    61    23    25    1
    62    19    21    1
    63    19    20    1
