@<TRIPOS>MOLECULE
C15 H7 N
 23 24 0 0 0
SMALL
GASTEIGER

@<TRIPOS>ATOM
      1 N           2.6202   24.4467    3.8061 N.ar    1  LIG1       -0.2369
      2 C           4.2436   22.8350    8.1165 C.1     1  LIG1       -0.0092
      3 C           3.8901   21.7368    7.7919 C.1     1  LIG1       -0.0512
      4 C           3.4785   20.4214    7.4004 C.ar    1  LIG1        0.0412
      5 C           3.7043   19.3309    8.2427 C.ar    1  LIG1       -0.0451
      6 C           3.3486   18.0469    7.8639 C.ar    1  LIG1       -0.0605
      7 C           2.7562   17.8338    6.6257 C.ar    1  LIG1       -0.0605
      8 C           2.5015   18.8991    5.7855 C.ar    1  LIG1       -0.0451
      9 C           2.8506   20.2036    6.1506 C.ar    1  LIG1        0.0407
     10 C           2.6016   21.2884    5.2429 C.1     1  LIG1       -0.0583
     11 C           2.4172   22.1694    4.4542 C.1     1  LIG1       -0.0411
     12 C           2.3200   23.1885    3.4357 C.ar    1  LIG1        0.1145
     13 C           1.9962   22.8310    2.1275 C.ar    1  LIG1       -0.0278
     14 C           2.0129   23.8106    1.1447 C.ar    1  LIG1       -0.0571
     15 C           2.3606   25.0948    1.4939 C.ar    1  LIG1       -0.0341
     16 C           2.6474   25.3775    2.8297 C.ar    1  LIG1        0.0906
     17 H           4.0999   19.4765    9.0714 H       1  LIG1        0.0630
     18 H           3.5134   17.3287    8.4323 H       1  LIG1        0.0618
     19 H           2.5218   16.9720    6.3639 H       1  LIG1        0.0618
     20 H           2.0971   18.7482    4.9620 H       1  LIG1        0.0630
     21 H           1.7777   21.9514    1.9196 H       1  LIG1        0.0645
     22 H           1.7843   23.6012    0.2679 H       1  LIG1        0.0619
     23 H           2.4100   25.7614    0.8480 H       1  LIG1        0.0639
@<TRIPOS>BOND
     1    22    14    1
     2    23    15    1
     3    14    15   ar
     4    14    13   ar
     5    15    16   ar
     6    21    13    1
     7    13    12   ar
     8    16     1   ar
     9    12     1   ar
    10    12    11    1
    11    11    10    3
    12    20     8    1
    13    10     9    1
    14     8     9   ar
    15     8     7   ar
    16     9     4   ar
    17    19     7    1
    18     7     6   ar
    19     4     3    1
    20     4     5   ar
    21     3     2    3
    22     6     5   ar
    23     6    18    1
    24     5    17    1
