@<TRIPOS>MOLECULE
?
 76 81 0 0 0
SMALL
GASTEIGER

@<TRIPOS>ATOM
      1 N           2.1730   -2.3587    9.6535 N.3     1  LIG1        0.0000
      2 C           3.3399   -1.8842   10.4530 C.3     1  LIG1        0.0000
      3 H           3.9656   -1.4130    9.8650 H       1  LIG1        0.0000
      4 C           3.2168   -4.2809   10.5996 C.ar    1  LIG1        0.0000
      5 N           2.8441    0.4521   11.5408 N.3     1  LIG1        0.0000
      6 C           3.9815   -3.1628   10.9453 C.ar    1  LIG1        0.0000
      7 C           0.0957   -1.0125    9.3571 C.3     1  LIG1        0.0000
      8 H          -0.4351   -1.7919    9.5390 H       1  LIG1        0.0000
      9 H          -0.3759   -0.4399    8.7483 H       1  LIG1        0.0000
     10 H           0.2620   -0.5396   10.1763 H       1  LIG1        0.0000
     11 C           0.9517   -0.4328   12.6815 C.ar    1  LIG1        0.0000
     12 C           3.0687   -1.0038   11.7383 C.3     1  LIG1        0.0000
     13 H           3.8495   -1.0981   12.3236 H       1  LIG1        0.0000
     14 C           0.9260   -4.6891    9.1216 C.ar    1  LIG1        0.0000
     15 C           0.2143    2.7727   11.0256 C.ar    1  LIG1        0.0000
     16 H           0.2642    2.3271   10.2114 H       1  LIG1        0.0000
     17 C           1.4259   -1.4355    8.7329 C.3     1  LIG1        0.0000
     18 B           2.0328   -3.7572    9.7460 B       1  LIG1        0.0000
     19 C           1.6227   -2.7344   13.0557 C.ar    1  LIG1        0.0000
     20 H           2.2355   -3.4257   12.9492 H       1  LIG1        0.0000
     21 C           1.8678   -1.4752   12.5206 C.ar    1  LIG1        0.0000
     22 C          -0.2372   -0.6619   13.3788 C.ar    1  LIG1        0.0000
     23 H          -0.8568    0.0239   13.4856 H       1  LIG1        0.0000
     24 C           0.4410   -2.9345   13.7524 C.ar    1  LIG1        0.0000
     25 H           0.2673   -3.7697   14.1229 H       1  LIG1        0.0000
     26 C           4.6914   -5.6582   11.9067 C.ar    1  LIG1        0.0000
     27 H           4.9286   -6.4913   12.2446 H       1  LIG1        0.0000
     28 C          -0.5254    3.9385   11.1126 C.ar    1  LIG1        0.0000
     29 H          -0.9752    4.2599   10.3649 H       1  LIG1        0.0000
     30 C          -1.3678   -5.4856    9.0020 C.ar    1  LIG1        0.0000
     31 H          -2.2432   -5.4517    9.3139 H       1  LIG1        0.0000
     32 C           0.8905    2.2487   12.1312 C.ar    1  LIG1        0.0000
     33 C           0.7894    2.9585   13.3276 C.ar    1  LIG1        0.0000
     34 H           1.2214    2.6329   14.0835 H       1  LIG1        0.0000
     35 B           1.5928    0.8433   12.0727 B       1  LIG1        0.0000
     36 C           1.1468   -2.1383    7.3972 C.3     1  LIG1        0.0000
     37 H           1.9721   -2.4550    7.0235 H       1  LIG1        0.0000
     38 H           0.7374   -1.5182    6.7896 H       1  LIG1        0.0000
     39 H           0.5557   -2.8801    7.5438 H       1  LIG1        0.0000
     40 C           4.0445    1.3407   11.3597 C.3     1  LIG1        0.0000
     41 C           3.5805   -5.5361   11.0862 C.ar    1  LIG1        0.0000
     42 H           3.0803   -6.2876   10.8619 H       1  LIG1        0.0000
     43 C           5.1085   -3.2842   11.7481 C.ar    1  LIG1        0.0000
     44 H           5.6228   -2.5386   11.9611 H       1  LIG1        0.0000
     45 C           1.2491   -5.6265    8.1368 C.ar    1  LIG1        0.0000
     46 H           2.1336   -5.7127    7.8654 H       1  LIG1        0.0000
     47 C           0.2800   -6.4349    7.5574 C.ar    1  LIG1        0.0000
     48 H           0.5126   -7.0258    6.8773 H       1  LIG1        0.0000
     49 C          -0.3993   -4.6574    9.5553 C.ar    1  LIG1        0.0000
     50 H          -0.6397   -4.0689   10.2333 H       1  LIG1        0.0000
     51 C          -1.0283   -6.3568    7.9893 C.ar    1  LIG1        0.0000
     52 H          -1.6805   -6.8924    7.5979 H       1  LIG1        0.0000
     53 C           5.4520   -4.5415   12.2258 C.ar    1  LIG1        0.0000
     54 H           6.2016   -4.6370   12.7679 H       1  LIG1        0.0000
     55 C          -0.4873   -1.9162   13.9082 C.ar    1  LIG1        0.0000
     56 H          -1.2783   -2.0761   14.3699 H       1  LIG1        0.0000
     57 C           2.2517   -0.1964    8.4026 C.3     1  LIG1        0.0000
     58 H           2.4276    0.2950    9.2087 H       1  LIG1        0.0000
     59 H           1.7641    0.3578    7.7894 H       1  LIG1        0.0000
     60 H           3.0824   -0.4640    8.0028 H       1  LIG1        0.0000
     61 C           5.1990    0.6702   10.6115 C.3     1  LIG1        0.0000
     62 H           5.4590   -0.1315   11.0724 H       1  LIG1        0.0000
     63 H           5.9455    1.2728   10.5725 H       1  LIG1        0.0000
     64 H           4.9185    0.4498    9.7203 H       1  LIG1        0.0000
     65 C          -0.5992    4.6269   12.3057 C.ar    1  LIG1        0.0000
     66 H          -1.0914    5.4133   12.3630 H       1  LIG1        0.0000
     67 C           3.6660    2.5958   10.5828 C.3     1  LIG1        0.0000
     68 H           3.3003    2.3469    9.7305 H       1  LIG1        0.0000
     69 H           4.4475    3.1370   10.4497 H       1  LIG1        0.0000
     70 H           3.0117    3.0937   11.0782 H       1  LIG1        0.0000
     71 C           0.0651    4.1393   13.4181 C.ar    1  LIG1        0.0000
     72 H           0.0244    4.6001   14.2252 H       1  LIG1        0.0000
     73 C           4.5411    1.7346   12.7551 C.3     1  LIG1        0.0000
     74 H           3.8566    2.2326   13.2079 H       1  LIG1        0.0000
     75 H           5.3288    2.2768   12.6715 H       1  LIG1        0.0000
     76 H           4.7478    0.9435   13.2576 H       1  LIG1        0.0000
@<TRIPOS>BOND
     1    38    36    1
     2    48    47    1
     3    37    36    1
     4    36    39    1
     5    36    17    1
     6    47    51   ar
     7    47    45   ar
     8    52    51    1
     9    59    57    1
    10    46    45    1
    11    51    30   ar
    12    60    57    1
    13    45    14   ar
    14    57    17    1
    15    57    58    1
    16    17     7    1
    17    17     1    1
    18     9     7    1
    19    30    31    1
    20    30    49   ar
    21    14    49   ar
    22    14    18    1
    23     7     8    1
    24     7    10    1
    25    49    50    1
    26     1    18    1
    27     1     2    1
    28    64    61    1
    29    68    67    1
    30    18     4    1
    31     3     2    1
    32    16    15    1
    33    29    28    1
    34    69    67    1
    35     2     6    1
    36     2    12    1
    37    63    61    1
    38    67    70    1
    39    67    40    1
    40     4     6   ar
    41     4    41   ar
    42    61    62    1
    43    61    40    1
    44    42    41    1
    45     6    43   ar
    46    15    28   ar
    47    15    32   ar
    48    41    26   ar
    49    28    65   ar
    50    40     5    1
    51    40    73    1
    52     5    12    1
    53     5    35    1
    54    12    13    1
    55    12    21    1
    56    43    44    1
    57    43    53   ar
    58    26    53   ar
    59    26    27    1
    60    35    32    1
    61    35    11    1
    62    32    33   ar
    63    53    54    1
    64    65    66    1
    65    65    71   ar
    66    21    11   ar
    67    21    19   ar
    68    75    73    1
    69    11    22   ar
    70    73    74    1
    71    73    76    1
    72    20    19    1
    73    19    24   ar
    74    33    71   ar
    75    33    34    1
    76    22    23    1
    77    22    55   ar
    78    71    72    1
    79    24    55   ar
    80    24    25    1
    81    55    56    1
