@<TRIPOS>MOLECULE
?
 86 92 0 0 0
SMALL
GASTEIGER

@<TRIPOS>ATOM
      1 N           4.7947    8.7004    4.3501 N.3     1  LIG1        0.2110
      2 N           4.6411    7.2006    6.6125 N.3     1  LIG1        0.1398
      3 N           6.2491    6.4387    4.5500 N.3     1  LIG1        0.2110
      4 P           5.8936    7.7426    3.7661 P.3     1  LIG1        0.6413
      5 P           4.3310    8.5808    5.8830 P.3     1  LIG1        0.3581
      6 P           5.5463    6.0713    5.9503 P.3     1  LIG1        0.3581
      7 O           5.5420    7.4247    2.2113 O.3     1  LIG1       -0.2642
      8 O           7.2893    8.4891    3.5109 O.3     1  LIG1       -0.2642
      9 O           0.3334    7.4463   -0.5892 O.2     1  LIG1       -0.2450
     10 O           2.0340    8.8073   -0.8974 O.3     1  LIG1       -0.4644
     11 O           5.5908   13.2640    3.8615 O.2     1  LIG1       -0.2450
     12 O           6.5517   14.2813    2.1591 O.3     1  LIG1       -0.4644
     13 C           4.3636    6.8615    1.8970 C.ar    1  LIG1        0.1847
     14 C           3.5373    7.5724    1.0324 C.ar    1  LIG1       -0.0006
     15 H           3.7966    8.4163    0.7406 H       1  LIG1        0.0664
     16 C           2.3348    7.0447    0.6038 C.ar    1  LIG1        0.0626
     17 C           1.9745    5.7884    1.0287 C.ar    1  LIG1       -0.0475
     18 H           1.1769    5.4149    0.7314 H       1  LIG1        0.0626
     19 C           2.7823    5.0766    1.8879 C.ar    1  LIG1       -0.0574
     20 H           2.5192    4.2350    2.1834 H       1  LIG1        0.0619
     21 C           3.9824    5.6150    2.3147 C.ar    1  LIG1       -0.0145
     22 H           4.5322    5.1293    2.8856 H       1  LIG1        0.0656
     23 C           1.4562    7.7657   -0.3411 C.2     1  LIG1        0.3390
     24 C           1.2682    9.5583   -1.8787 C.3     1  LIG1        0.0820
     25 H           1.0580    8.9899   -2.6229 H       1  LIG1        0.0661
     26 H           1.7859   10.3067   -2.1834 H       1  LIG1        0.0661
     27 H           0.4552    9.8733   -1.4775 H       1  LIG1        0.0661
     28 C           7.4099    9.6740    2.7944 C.ar    1  LIG1        0.1847
     29 C           6.8409   10.8352    3.1975 C.ar    1  LIG1       -0.0006
     30 H           6.3203   10.8458    3.9691 H       1  LIG1        0.0664
     31 C           7.0249   12.0160    2.4752 C.ar    1  LIG1        0.0626
     32 C           7.8008   11.9894    1.3625 C.ar    1  LIG1       -0.0475
     33 H           7.9260   12.7614    0.8591 H       1  LIG1        0.0626
     34 C           8.3992   10.8105    0.9868 C.ar    1  LIG1       -0.0574
     35 H           8.9595   10.8006    0.2444 H       1  LIG1        0.0619
     36 C           8.1848    9.6380    1.6927 C.ar    1  LIG1       -0.0145
     37 H           8.5698    8.8392    1.4118 H       1  LIG1        0.0656
     38 C           6.3256   13.2219    2.9276 C.2     1  LIG1        0.3390
     39 C           5.8205   15.4848    2.4880 C.3     1  LIG1        0.0820
     40 H           4.9327   15.2520    2.7725 H       1  LIG1        0.0661
     41 H           5.7708   16.0510    1.7146 H       1  LIG1        0.0661
     42 H           6.2716   15.9493    3.1975 H       1  LIG1        0.0661
     43 C           2.5591    8.8551    5.9259 C.ar    1  LIG1        0.1467
     44 C           1.9097    9.3246    7.0444 C.ar    1  LIG1       -0.0155
     45 H           2.4044    9.6039    7.7795 H       1  LIG1        0.0658
     46 C           0.5367    9.3854    7.0809 C.ar    1  LIG1       -0.0579
     47 H           0.1119    9.6893    7.8506 H       1  LIG1        0.0619
     48 C          -0.2014    9.0099    6.0211 C.ar    1  LIG1       -0.0615
     49 H          -1.1298    9.0703    6.0539 H       1  LIG1        0.0618
     50 C           0.4165    8.5410    4.8993 C.ar    1  LIG1       -0.0579
     51 H          -0.0912    8.2816    4.1642 H       1  LIG1        0.0619
     52 C           1.7841    8.4524    4.8501 C.ar    1  LIG1       -0.0155
     53 H           2.1963    8.1194    4.0858 H       1  LIG1        0.0658
     54 C           5.1043    9.9080    6.8341 C.ar    1  LIG1        0.1467
     55 C           4.9749   11.2322    6.4352 C.ar    1  LIG1       -0.0155
     56 H           4.4338   11.4443    5.7092 H       1  LIG1        0.0658
     57 C           5.6370   12.2304    7.1064 C.ar    1  LIG1       -0.0579
     58 H           5.5469   13.1140    6.8310 H       1  LIG1        0.0619
     59 C           6.4273   11.9263    8.1716 C.ar    1  LIG1       -0.0615
     60 H           6.8693   12.6047    8.6295 H       1  LIG1        0.0618
     61 C           6.5727   10.6270    8.5766 C.ar    1  LIG1       -0.0579
     62 H           7.1214   10.4198    9.2989 H       1  LIG1        0.0619
     63 C           5.9023    9.6284    7.9071 C.ar    1  LIG1       -0.0155
     64 H           5.9929    8.7472    8.1917 H       1  LIG1        0.0658
     65 C           4.5215    4.6017    5.7318 C.ar    1  LIG1        0.1467
     66 C           3.1647    4.6693    5.9773 C.ar    1  LIG1       -0.0155
     67 H           2.7905    5.4584    6.2984 H       1  LIG1        0.0658
     68 C           2.3582    3.5636    5.7475 C.ar    1  LIG1       -0.0579
     69 H           1.4450    3.6193    5.9135 H       1  LIG1        0.0619
     70 C           2.8856    2.4028    5.2824 C.ar    1  LIG1       -0.0615
     71 H           2.3369    1.6705    5.1164 H       1  LIG1        0.0618
     72 C           4.2265    2.3204    5.0598 C.ar    1  LIG1       -0.0579
     73 H           4.5952    1.5212    4.7589 H       1  LIG1        0.0619
     74 C           5.0475    3.4185    5.2806 C.ar    1  LIG1       -0.0155
     75 H           5.9611    3.3513    5.1200 H       1  LIG1        0.0658
     76 C           6.8497    5.6215    7.0956 C.ar    1  LIG1        0.1467
     77 C           6.5278    5.1983    8.3796 C.ar    1  LIG1       -0.0155
     78 H           5.6363    5.0990    8.6258 H       1  LIG1        0.0658
     79 C           7.5249    4.9276    9.2861 C.ar    1  LIG1       -0.0579
     80 H           7.3040    4.6338   10.1398 H       1  LIG1        0.0619
     81 C           8.8375    5.0854    8.9414 C.ar    1  LIG1       -0.0615
     82 H           9.5048    4.9047    9.5634 H       1  LIG1        0.0618
     83 C           9.1684    5.5045    7.6956 C.ar    1  LIG1       -0.0579
     84 H          10.0619    5.6215    7.4657 H       1  LIG1        0.0619
     85 C           8.1745    5.7585    6.7671 C.ar    1  LIG1       -0.0155
     86 H           8.4081    6.0252    5.9080 H       1  LIG1        0.0658
@<TRIPOS>BOND
     1    25    24    1
     2    26    24    1
     3    24    27    1
     4    24    10    1
     5    10    23    1
     6     9    23    2
     7    23    16    1
     8    35    34    1
     9    16    17   ar
    10    16    14   ar
    11    18    17    1
    12    15    14    1
    13    33    32    1
    14    34    32   ar
    15    34    36   ar
    16    17    19   ar
    17    14    13   ar
    18    32    31   ar
    19    37    36    1
    20    36    28   ar
    21    41    39    1
    22    19    20    1
    23    19    21   ar
    24    13     7    1
    25    13    21   ar
    26    12    39    1
    27    12    38    1
    28     7     4    1
    29    21    22    1
    30    31    38    1
    31    31    29   ar
    32    39    40    1
    33    39    42    1
    34    28    29   ar
    35    28     8    1
    36    38    11    2
    37    29    30    1
    38     8     4    1
    39     4     1    1
    40     4     3    1
    41    53    52    1
    42    51    50    1
    43     1     5    1
    44     3     6    1
    45    73    72    1
    46    52    50   ar
    47    52    43   ar
    48    50    48   ar
    49    72    74   ar
    50    72    70   ar
    51    71    70    1
    52    75    74    1
    53    74    65   ar
    54    70    68   ar
    55    56    55    1
    56    65     6    1
    57    65    66   ar
    58    68    69    1
    59    68    66   ar
    60     5    43    1
    61     5     2    1
    62     5    54    1
    63    86    85    1
    64    43    44   ar
    65     6     2    1
    66     6    76    1
    67    66    67    1
    68    48    49    1
    69    48    46   ar
    70    55    54   ar
    71    55    57   ar
    72    85    76   ar
    73    85    83   ar
    74    58    57    1
    75    54    63   ar
    76    44    46   ar
    77    44    45    1
    78    46    47    1
    79    76    77   ar
    80    57    59   ar
    81    84    83    1
    82    83    81   ar
    83    63    64    1
    84    63    61   ar
    85    59    61   ar
    86    59    60    1
    87    77    78    1
    88    77    79   ar
    89    61    62    1
    90    81    79   ar
    91    81    82    1
    92    79    80    1
