@<TRIPOS>MOLECULE
?
 98 103 0 0 0
SMALL
GASTEIGER

@<TRIPOS>ATOM
      1 F           3.4945    8.5910   12.9340 F       1  LIG1        0.0000
      2 F           2.6759   10.6605   12.4119 F       1  LIG1        0.0000
      3 F           8.8847   -1.5553    6.4494 F       2  LIG2        0.0000
      4 F          10.0970   -0.3540    4.9599 F       2  LIG2        0.0000
      5 F           7.5578    7.1715    3.6356 F       3  LIG3        0.0000
      6 F           6.8532    9.2860    3.1424 F       3  LIG3        0.0000
      7 O           3.6742    9.3817   10.7805 O.2     1  LIG1        0.0000
      8 O          10.3053    0.0446    7.2328 O.2     2  LIG2        0.0000
      9 O           5.4331    7.8737    4.2419 O.2     3  LIG3        0.0000
     10 N           3.4649   10.7293   16.8906 N.pl3   1  LIG1        0.0000
     11 H           2.7217   10.3559   16.6054 H       1  LIG1        0.0000
     12 H           3.5457   10.9588   17.7364 H       1  LIG1        0.0000
     13 N           4.3087   10.5879   14.7714 N.ar    1  LIG1        0.0000
     14 N           5.0956   10.4066   12.5905 N.pl3   1  LIG1        0.0000
     15 N           6.1944   -2.0773    3.0623 N.pl3   2  LIG2        0.0000
     16 H           6.8102   -2.6680    3.2791 H       2  LIG2        0.0000
     17 H           5.5657   -2.2898    2.4847 H       2  LIG2        0.0000
     18 N           7.1958   -0.5909    4.4854 N.ar    2  LIG2        0.0000
     19 N           8.2534    0.7941    6.0003 N.pl3   2  LIG2        0.0000
     20 N           9.9800    8.8098    0.0499 N.pl3   3  LIG3        0.0000
     21 H          10.1845    9.1210    0.8472 H       3  LIG3        0.0000
     22 H          10.5496    8.8984   -0.6147 H       3  LIG3        0.0000
     23 N           7.9802    8.0965    0.8886 N.ar    3  LIG3        0.0000
     24 N           5.9611    7.4354    1.8223 N.pl3   3  LIG3        0.0000
     25 B           3.7030    9.7388   12.2008 B       1  LIG1        0.0000
     26 B           9.3985   -0.3133    6.1589 B       2  LIG2        0.0000
     27 B           6.4732    7.9519    3.2349 B       3  LIG3        0.0000
     28 C           4.4806   10.9512   16.0320 C.ar    1  LIG1        0.0000
     29 C           5.6813   11.5590   16.5084 C.ar    1  LIG1        0.0000
     30 H           5.7770   11.7966   17.4226 H       1  LIG1        0.0000
     31 C           6.6748   11.7872   15.6283 C.ar    1  LIG1        0.0000
     32 H           7.4752   12.2065   15.9207 H       1  LIG1        0.0000
     33 C           6.5364   11.4070   14.2633 C.ar    1  LIG1        0.0000
     34 C           7.5338   11.6166   13.2863 C.3     1  LIG1        0.0000
     35 C           7.2741   11.2133   12.0054 C.2     1  LIG1        0.0000
     36 H           7.9316   11.3453   11.3322 H       1  LIG1        0.0000
     37 C           6.0432   10.6040   11.6617 C.2     1  LIG1        0.0000
     38 C           5.3147   10.8015   13.9096 C.ar    1  LIG1        0.0000
     39 C           8.8369   12.2779   13.6414 C.3     1  LIG1        0.0000
     40 H           9.4017   12.3366   12.8427 H       1  LIG1        0.0000
     41 H           9.2953   11.7489   14.3275 H       1  LIG1        0.0000
     42 H           8.6631   13.1784   13.9852 H       1  LIG1        0.0000
     43 C           5.8152   10.2012   10.3052 C.2     1  LIG1        0.0000
     44 H           6.4960   10.3472    9.6591 H       1  LIG1        0.0000
     45 C           4.6539    9.6165    9.9230 C.2     1  LIG1        0.0000
     46 C           4.3452    9.1950    8.5223 C.3     1  LIG1        0.0000
     47 H           3.4489    8.8001    8.4910 H       1  LIG1        0.0000
     48 H           5.0050    8.5319    8.2285 H       1  LIG1        0.0000
     49 H           4.3800    9.9757    7.9318 H       1  LIG1        0.0000
     50 C           6.2151   -0.8335    3.6229 C.ar    2  LIG2        0.0000
     51 C           5.2475    0.1428    3.2592 C.ar    2  LIG2        0.0000
     52 H           4.5830   -0.0515    2.6088 H       2  LIG2        0.0000
     53 C           5.2928    1.3576    3.8611 C.ar    2  LIG2        0.0000
     54 H           4.6451    2.0169    3.6443 H       2  LIG2        0.0000
     55 C           6.3046    1.6488    4.8181 C.ar    2  LIG2        0.0000
     56 C           6.4140    2.8854    5.5128 C.3     2  LIG2        0.0000
     57 C           7.4087    3.0001    6.4285 C.2     2  LIG2        0.0000
     58 H           7.4874    3.8108    6.9163 H       2  LIG2        0.0000
     59 C           8.3283    1.9635    6.6824 C.2     2  LIG2        0.0000
     60 C           7.2277    0.6119    5.0834 C.ar    2  LIG2        0.0000
     61 C           5.4678    4.0232    5.2475 C.3     2  LIG2        0.0000
     62 H           5.7048    4.7841    5.8194 H       2  LIG2        0.0000
     63 H           4.5510    3.7395    5.4457 H       2  LIG2        0.0000
     64 H           5.5318    4.2892    4.3061 H       2  LIG2        0.0000
     65 C           9.3617    2.1381    7.6480 C.2     2  LIG2        0.0000
     66 H           9.3910    2.9503    8.1401 H       2  LIG2        0.0000
     67 C          10.2916    1.2098    7.8933 C.2     2  LIG2        0.0000
     68 C          11.3772    1.3209    8.9032 C.3     2  LIG2        0.0000
     69 H          11.3181    2.1898    9.3525 H       2  LIG2        0.0000
     70 H          12.2470    1.2415    8.4581 H       2  LIG2        0.0000
     71 H          11.2818    0.6043    9.5650 H       2  LIG2        0.0000
     72 C           8.7917    8.1973   -0.1526 C.ar    3  LIG3        0.0000
     73 C           8.4620    7.6904   -1.4377 C.ar    3  LIG3        0.0000
     74 H           9.0769    7.7569   -2.1595 H       3  LIG3        0.0000
     75 C           7.2551    7.1118   -1.6118 C.ar    3  LIG3        0.0000
     76 H           7.0163    6.7735   -2.4676 H       3  LIG3        0.0000
     77 C           6.3513    7.0037   -0.5463 C.ar    3  LIG3        0.0000
     78 C           5.0499    6.4051   -0.6404 C.2     3  LIG3        0.0000
     79 C           4.2835    6.3649    0.4735 C.2     3  LIG3        0.0000
     80 H           3.4128    5.9888    0.4165 H       3  LIG3        0.0000
     81 C           4.7287    6.8593    1.7202 C.3     3  LIG3        0.0000
     82 C           6.7754    7.5189    0.7003 C.ar    3  LIG3        0.0000
     83 C           4.5787    5.8316   -1.9441 C.3     3  LIG3        0.0000
     84 H           3.6759    5.4685   -1.8343 H       3  LIG3        0.0000
     85 H           5.1877    5.1174   -2.2251 H       3  LIG3        0.0000
     86 H           4.5662    6.5362   -2.6259 H       3  LIG3        0.0000
     87 C           3.9097    6.7608    2.8712 C.2     3  LIG3        0.0000
     88 H           3.0787    6.3057    2.7999 H       3  LIG3        0.0000
     89 C           4.2552    7.2804    4.0593 C.2     3  LIG3        0.0000
     90 C           3.4018    7.2829    5.2931 C.3     3  LIG3        0.0000
     91 H           3.8862    7.7208    6.0248 H       3  LIG3        0.0000
     92 H           3.1928    6.3599    5.5470 H       3  LIG3        0.0000
     93 H           2.5705    7.7690    5.1148 H       3  LIG3        0.0000
     94 CL          6.9288    7.1388    6.9468 Cl      1  LIG1        0.0000
     95 CL          5.8048    5.5905    9.0890 Cl      1  LIG1        0.0000
     96 C           7.0128    6.8182    8.6807 C.3     1  LIG1        0.0000
     97 H           6.8328    7.6489    9.1870 H       1  LIG1        0.0000
     98 H           7.9170    6.4951    8.9217 H       1  LIG1        0.0000
@<TRIPOS>BOND
     1    86    83    1
     2    76    75    1
     3    85    83    1
     4    74    73    1
     5    83    84    1
     6    83    78    1
     7    75    73   ar
     8    75    77   ar
     9    73    72   ar
    10    78    77    1
    11    78    79    2
    12    22    20    1
    13    77    82   ar
    14    72    20    1
    15    72    23   ar
    16    20    21    1
    17    80    79    1
    18    79    81    1
    19    82    23   ar
    20    82    24    1
    21    81    24    1
    22    81    87    1
    23    24    27    1
    24    17    15    1
    25    52    51    1
    26    88    87    1
    27    87    89    2
    28    15    16    1
    29    15    50    1
    30     6    27    1
    31    27     5    1
    32    27     9    1
    33    51    50   ar
    34    51    53   ar
    35    50    18   ar
    36    54    53    1
    37    53    55   ar
    38    89     9    1
    39    89    90    1
    40    64    61    1
    41    18    60   ar
    42    55    60   ar
    43    55    56    1
    44     4    26    1
    45    60    19    1
    46    93    90    1
    47    61    63    1
    48    61    56    1
    49    61    62    1
    50    90    92    1
    51    90    91    1
    52    56    57    1
    53    19    26    1
    54    19    59    1
    55    26     3    1
    56    26     8    1
    57    57    59    2
    58    57    58    1
    59    59    65    1
    60    94    96    1
    61     8    67    1
    62    65    67    2
    63    65    66    1
    64    67    68    1
    65    49    46    1
    66    48    46    1
    67    70    68    1
    68    47    46    1
    69    46    45    1
    70    96    98    1
    71    96    95    1
    72    96    97    1
    73    68    69    1
    74    68    71    1
    75    44    43    1
    76    45    43    2
    77    45     7    1
    78    43    37    1
    79     7    25    1
    80    36    35    1
    81    37    35    2
    82    37    14    1
    83    35    34    1
    84    25     2    1
    85    25    14    1
    86    25     1    1
    87    14    38    1
    88    40    39    1
    89    34    39    1
    90    34    33    1
    91    39    42    1
    92    39    41    1
    93    38    33   ar
    94    38    13   ar
    95    33    31   ar
    96    13    28   ar
    97    31    32    1
    98    31    29   ar
    99    28    29   ar
   100    28    10    1
   101    29    30    1
   102    11    10    1
   103    10    12    1
