@<TRIPOS>MOLECULE
?
 49 48 0 0 0
SMALL
GASTEIGER

@<TRIPOS>ATOM
      1 N           2.5582    2.8391   -3.2369 N.pl3   1  LIG1       -0.0691
      2 N           4.0552    4.5846   -2.9666 N.pl3   1  LIG1       -0.2673
      3 N           4.5734    2.5277   -2.0046 N.pl3   1  LIG1       -0.2673
      4 N          -1.7837   -0.5016    4.6487 N.pl3   1  LIG1       -0.0931
      5 N          -2.1382   -1.5296    6.6754 N.pl3   1  LIG1       -0.2676
      6 N          -0.3125   -2.2163    5.4428 N.pl3   1  LIG1       -0.2676
      7 N           0.4007    1.1656    0.7185 N.2     1  LIG1       -0.2437
      8 C           1.8653    1.8299   -2.5617 C.2     1  LIG1        0.1858
      9 C           1.5293    1.9481   -1.2406 C.2     1  LIG1        0.0114
     10 H           1.8191    2.6943   -0.7680 H       1  LIG1        0.0676
     11 C           0.7523    0.9682   -0.5656 C.2     1  LIG1        0.0935
     12 C          -0.3542    0.2067    1.2913 C.2     1  LIG1        0.0897
     13 C          -0.7372    0.3301    2.6483 C.2     1  LIG1       -0.0050
     14 H          -0.5203    1.1101    3.1066 H       1  LIG1        0.0635
     15 C          -1.4156   -0.6585    3.3083 C.3     1  LIG1        0.2398
     16 C           3.6769    3.2822   -2.7395 C.cat   1  LIG1        0.3905
     17 C           3.0709    5.4881   -3.5450 C.3     1  LIG1        0.0558
     18 H           3.0610    5.3824   -4.4990 H       1  LIG1        0.0619
     19 H           3.3009    6.3937   -3.3267 H       1  LIG1        0.0619
     20 H           2.2021    5.2836   -3.1920 H       1  LIG1        0.0619
     21 C           5.4321    4.9457   -3.2870 C.3     1  LIG1        0.0558
     22 H           6.0266    4.2738   -2.9449 H       1  LIG1        0.0619
     23 H           5.6424    5.7931   -2.8865 H       1  LIG1        0.0619
     24 H           5.5337    5.0072   -4.2400 H       1  LIG1        0.0619
     25 C           5.2138    3.0534   -0.8139 C.3     1  LIG1        0.0558
     26 H           5.0519    3.9974   -0.7546 H       1  LIG1        0.0619
     27 H           6.1590    2.8935   -0.8609 H       1  LIG1        0.0619
     28 H           4.8532    2.6171   -0.0374 H       1  LIG1        0.0619
     29 C           4.5876    1.0800   -2.1086 C.3     1  LIG1        0.0558
     30 H           4.0472    0.7041   -1.4103 H       1  LIG1        0.0619
     31 H           5.4894    0.7612   -2.0227 H       1  LIG1        0.0619
     32 H           4.2352    0.8168   -2.9629 H       1  LIG1        0.0619
     33 C          -1.4255   -1.3953    5.5168 C.cat   1  LIG1        0.3860
     34 C          -3.4210   -0.8804    6.7793 C.3     1  LIG1        0.0558
     35 H          -3.2978    0.0278    7.0636 H       1  LIG1        0.0619
     36 H          -3.9639   -1.3448    7.4200 H       1  LIG1        0.0619
     37 H          -3.8560   -0.8924    5.9228 H       1  LIG1        0.0619
     38 C          -1.4951   -1.8432    7.9501 C.3     1  LIG1        0.0558
     39 H          -0.5768   -2.0767    7.7957 H       1  LIG1        0.0619
     40 H          -1.9480   -2.5816    8.3647 H       1  LIG1        0.0619
     41 H          -1.5380   -1.0777    8.5279 H       1  LIG1        0.0619
     42 C          -0.4709   -3.6588    5.6014 C.3     1  LIG1        0.0558
     43 H          -1.2655   -3.8399    6.1084 H       1  LIG1        0.0619
     44 H           0.2917   -4.0159    6.0620 H       1  LIG1        0.0619
     45 H          -0.5432   -4.0700    4.7370 H       1  LIG1        0.0619
     46 C           0.8340   -1.8193    4.6533 C.3     1  LIG1        0.0558
     47 H           0.7199   -2.1199    3.7489 H       1  LIG1        0.0619
     48 H           1.6281   -2.2110    5.0230 H       1  LIG1        0.0619
     49 H           0.9149   -0.8631    4.6637 H       1  LIG1        0.0619
@<TRIPOS>BOND
     1    18    17    1
     2    24    21    1
     3    17    19    1
     4    17    20    1
     5    17     2    1
     6    21     2    1
     7    21    22    1
     8    21    23    1
     9     1    16    2
    10     1     8    1
    11     2    16    1
    12    32    29    1
    13    16     3    1
    14     8     9    2
    15    29    31    1
    16    29     3    1
    17    29    30    1
    18     3    25    1
    19     9    10    1
    20     9    11    1
    21    27    25    1
    22    25    26    1
    23    25    28    1
    24    11     7    2
    25     7    12    1
    26    12    13    2
    27    13    14    1
    28    13    15    1
    29    15     4    1
    30    47    46    1
    31     4    33    2
    32    46    49    1
    33    46    48    1
    34    46     6    1
    35    45    42    1
    36     6    33    1
    37     6    42    1
    38    33     5    1
    39    42    44    1
    40    42    43    1
    41    37    34    1
    42     5    34    1
    43     5    38    1
    44    34    35    1
    45    34    36    1
    46    39    38    1
    47    38    40    1
    48    38    41    1
