@<TRIPOS>MOLECULE
C18 H5 B Cl F10 N O2 S
 39 41 0 0 0
SMALL
GASTEIGER

@<TRIPOS>ATOM
      1 CL          6.9946    9.3352   -1.7691 Cl      1  LIG1        0.0000
      2 S           5.5757    6.1827    3.4079 S.O2    1  LIG1        0.0000
      3 F           5.2949    9.7442    5.7327 F       1  LIG1        0.0000
      4 F           4.3744   11.6063    7.4147 F       1  LIG1        0.0000
      5 F           1.7192   12.0800    7.6118 F       1  LIG1        0.0000
      6 F          -0.0493   10.5447    6.2133 F       1  LIG1        0.0000
      7 F           0.8373    8.6369    4.5716 F       1  LIG1        0.0000
      8 F           1.7727    5.8378    3.6292 F       1  LIG1        0.0000
      9 F           0.5621    5.2762    1.2897 F       1  LIG1        0.0000
     10 F           1.0018    6.8489   -0.8744 F       1  LIG1        0.0000
     11 F           2.6469    9.0103   -0.6794 F       1  LIG1        0.0000
     12 F           3.8715    9.5597    1.6655 F       1  LIG1        0.0000
     13 O           4.6679    5.1402    3.0609 O.2     1  LIG1        0.0000
     14 O           6.7916    5.8697    4.1016 O.2     1  LIG1        0.0000
     15 N           4.8106    7.3053    4.3645 N.3     1  LIG1        0.0000
     16 H           5.1875    7.4789    5.1406 H       1  LIG1        0.0000
     17 C           3.1084    9.1005    5.0737 C.ar    1  LIG1        0.0000
     18 C           3.9611    9.8853    5.8484 C.ar    1  LIG1        0.0000
     19 C           3.5099   10.8646    6.7100 C.ar    1  LIG1        0.0000
     20 C           2.1607   11.0981    6.8209 C.ar    1  LIG1        0.0000
     21 C           1.2652   10.3335    6.0957 C.ar    1  LIG1        0.0000
     22 C           1.7509    9.3657    5.2465 C.ar    1  LIG1        0.0000
     23 C           2.8616    7.7163    2.7196 C.ar    1  LIG1        0.0000
     24 C           2.0056    6.6362    2.5748 C.ar    1  LIG1        0.0000
     25 C           1.3776    6.3390    1.3862 C.ar    1  LIG1        0.0000
     26 C           1.5969    7.1406    0.2889 C.ar    1  LIG1        0.0000
     27 C           2.4218    8.2357    0.3903 C.ar    1  LIG1        0.0000
     28 C           3.0349    8.5108    1.6014 C.ar    1  LIG1        0.0000
     29 C           5.9895    7.0753    1.9517 C.ar    1  LIG1        0.0000
     30 C           5.5176    6.6152    0.7280 C.ar    1  LIG1        0.0000
     31 H           4.9821    5.8316    0.6832 H       1  LIG1        0.0000
     32 C           5.8368    7.3134   -0.4261 C.ar    1  LIG1        0.0000
     33 H           5.5306    7.0104   -1.2731 H       1  LIG1        0.0000
     34 C           6.6086    8.4603   -0.3257 C.ar    1  LIG1        0.0000
     35 C           7.0854    8.9176    0.8962 C.ar    1  LIG1        0.0000
     36 H           7.6169    9.7040    0.9416 H       1  LIG1        0.0000
     37 C           6.7783    8.2173    2.0395 C.ar    1  LIG1        0.0000
     38 H           7.1031    8.5114    2.8826 H       1  LIG1        0.0000
     39 B           3.6279    8.0098    4.0733 B       1  LIG1        0.0000
@<TRIPOS>BOND
     1     1    34    1
     2    33    32    1
     3    10    26    1
     4    11    27    1
     5    32    34   ar
     6    32    30   ar
     7    34    35   ar
     8    26    27   ar
     9    26    25   ar
    10    27    28   ar
    11    31    30    1
    12    30    29   ar
    13    35    36    1
    14    35    37   ar
    15     9    25    1
    16    25    24   ar
    17    28    12    1
    18    28    23   ar
    19    29    37   ar
    20    29     2    1
    21    37    38    1
    22    24    23   ar
    23    24     8    1
    24    23    39    1
    25    13     2    2
    26     2    14    2
    27     2    15    1
    28    39    15    1
    29    39    17    1
    30    15    16    1
    31     7    22    1
    32    17    22   ar
    33    17    18   ar
    34    22    21   ar
    35     3    18    1
    36    18    19   ar
    37    21     6    1
    38    21    20   ar
    39    19    20   ar
    40    19     4    1
    41    20     5    1
