@<TRIPOS>MOLECULE
?
 41 44 0 0 0
SMALL
GASTEIGER

@<TRIPOS>ATOM
      1 S           8.1918    6.5586    7.8868 S.3     1  LIG1        0.1299
      2 P           6.6332    6.1701    6.7944 P.3     1  LIG1        0.1069
      3 O           6.2722    3.0454    7.2242 O.3     1  LIG1       -0.3911
      4 O           3.4351    4.7137    6.0562 O.3     1  LIG1       -0.3682
      5 C           6.7312    4.7928    5.5996 C.3     1  LIG1        0.1118
      6 C           5.4277    4.9441    4.7644 C.3     1  LIG1        0.0338
      7 C           4.8319    6.3534    5.0705 C.3     1  LIG1        0.0440
      8 C           3.9924    6.0130    6.3429 C.3     1  LIG1        0.1171
      9 C           4.9909    5.8903    7.5733 C.3     1  LIG1        0.1368
     10 C           5.9725    7.2782    5.5096 C.3     1  LIG1        0.0818
     11 C           4.2752    4.0120    5.1118 C.3     1  LIG1        0.0558
     12 C           7.1147    3.4235    6.1416 C.3     1  LIG1        0.0821
     13 C           4.0172    6.9013    3.9079 C.3     1  LIG1       -0.0530
     14 C           2.8254    6.9345    6.6185 C.3     1  LIG1       -0.0311
     15 C           4.6972    6.7682    8.7590 C.ar    1  LIG1       -0.0037
     16 C           4.0487    6.2290    9.8617 C.ar    1  LIG1       -0.0547
     17 C           3.7051    7.0143   10.9610 C.ar    1  LIG1       -0.0614
     18 C           4.0002    8.3639   10.9635 C.ar    1  LIG1       -0.0617
     19 C           4.6485    8.9194    9.8755 C.ar    1  LIG1       -0.0614
     20 C           4.9988    8.1332    8.7850 C.ar    1  LIG1       -0.0547
     21 H           7.5000    5.0894    5.0644 H       1  LIG1        0.0774
     22 H           5.6289    4.8406    3.8601 H       1  LIG1        0.0370
     23 H           6.6726    7.4571    4.7817 H       1  LIG1        0.0718
     24 H           5.6289    8.1592    5.8339 H       1  LIG1        0.0718
     25 H           7.0065    2.7789    5.4362 H       1  LIG1        0.0597
     26 H           8.0739    3.4774    6.4669 H       1  LIG1        0.0597
     27 H           3.7714    3.8255    4.2950 H       1  LIG1        0.0564
     28 H           4.5980    6.9899    3.1366 H       1  LIG1        0.0237
     29 H           3.3208    6.3241    3.6533 H       1  LIG1        0.0237
     30 H           3.6556    7.7585    4.1012 H       1  LIG1        0.0237
     31 H           3.1210    7.8438    6.7268 H       1  LIG1        0.0259
     32 H           2.2078    6.8567    5.9042 H       1  LIG1        0.0259
     33 H           2.3537    6.6091    7.4029 H       1  LIG1        0.0259
     34 H           3.7970    5.2973    9.8648 H       1  LIG1        0.0622
     35 H           3.2478    6.6068   11.6620 H       1  LIG1        0.0618
     36 H           3.7331    8.9418   11.7280 H       1  LIG1        0.0618
     37 H           4.8443    9.9242    9.8217 H       1  LIG1        0.0618
     38 H           5.4738    8.5365    8.0517 H       1  LIG1        0.0622
     39 H           6.6233    2.3911    7.5881 H       1  LIG1        0.2096
     40 H           4.9821    4.9703    7.8120 H       1  LIG1        0.0828
     41 H           4.5524    3.1492    5.4980 H       1  LIG1        0.0564
@<TRIPOS>BOND
     1    28    13    1
     2    29    13    1
     3    22     6    1
     4    13    30    1
     5    13     7    1
     6    27    11    1
     7     6     7    1
     8     6    11    1
     9     6     5    1
    10    23    10    1
    11    21     5    1
    12     7    10    1
    13     7     8    1
    14    11    41    1
    15    11     4    1
    16    25    12    1
    17    10    24    1
    18    10     2    1
    19     5    12    1
    20     5     2    1
    21    32    14    1
    22     4     8    1
    23    12    26    1
    24    12     3    1
    25     8    14    1
    26     8     9    1
    27    14    31    1
    28    14    33    1
    29     2     9    1
    30     2     1    1
    31     3    39    1
    32     9    40    1
    33     9    15    1
    34    38    20    1
    35    15    20   ar
    36    15    16   ar
    37    20    19   ar
    38    37    19    1
    39    16    34    1
    40    16    17   ar
    41    19    18   ar
    42    17    18   ar
    43    17    35    1
    44    18    36    1
