@<TRIPOS>MOLECULE
?
 82 90 0 0 0
SMALL
GASTEIGER

@<TRIPOS>ATOM
      1 S           6.0707    5.4766    9.5828 S.2     1  LIG1        0.0000
      2 S           7.4819   11.3643   17.5101 S.2     2  LIG2        0.0000
      3 B           7.9581    4.8235    6.0274 B       1  LIG1        0.0000
      4 B           4.3479    8.7958   17.5260 B       2  LIG2        0.0000
      5 F           7.2112    4.1572    5.0993 F       1  LIG1        0.0000
      6 F           8.5328    5.9370    5.4663 F       1  LIG1        0.0000
      7 F           4.4966    7.4388   17.4360 F       2  LIG2        0.0000
      8 F           3.5705    9.1243   18.6152 F       2  LIG2        0.0000
      9 O           8.9705    3.9434    6.5714 O.2     1  LIG1        0.0000
     10 O           3.7413    9.2922   16.3021 O.2     2  LIG2        0.0000
     11 N           7.0377    5.2824    7.2186 N.ar    1  LIG1        0.0000
     12 N           5.7385    9.4857   17.6852 N.ar    2  LIG2        0.0000
     13 C           5.2096    6.2494    8.2768 C.ar    1  LIG1        0.0000
     14 C           4.0332    6.9897    8.3253 C.ar    1  LIG1        0.0000
     15 H           3.5867    7.1322    9.1288 H       1  LIG1        0.0000
     16 C           3.5553    7.5029    7.1442 C.ar    1  LIG1        0.0000
     17 H           2.7719    8.0037    7.1484 H       1  LIG1        0.0000
     18 C           4.2186    7.2908    5.9391 C.ar    1  LIG1        0.0000
     19 H           3.8635    7.6440    5.1550 H       1  LIG1        0.0000
     20 C           5.3859    6.5720    5.8863 C.ar    1  LIG1        0.0000
     21 H           5.8298    6.4381    5.0806 H       1  LIG1        0.0000
     22 C           5.8847    6.0505    7.0730 C.ar    1  LIG1        0.0000
     23 C           7.2804    4.9063    8.4771 C.ar    1  LIG1        0.0000
     24 C           8.3733    4.0772    8.8534 C.2     1  LIG1        0.0000
     25 C           9.1906    3.6345    7.8467 C.2     1  LIG1        0.0000
     26 C           8.5561    3.7291   10.2883 C.ar    1  LIG1        0.0000
     27 C           8.7258    4.7252   11.2481 C.ar    1  LIG1        0.0000
     28 H           8.6566    5.6190   11.0025 H       1  LIG1        0.0000
     29 C           8.9987    4.3928   12.5651 C.ar    1  LIG1        0.0000
     30 H           9.0940    5.0650   13.1997 H       1  LIG1        0.0000
     31 C           9.1279    3.0822   12.9350 C.ar    1  LIG1        0.0000
     32 H           9.3564    2.8661   13.8113 H       1  LIG1        0.0000
     33 C           8.9190    2.0875   12.0144 C.ar    1  LIG1        0.0000
     34 H           8.9804    1.1957   12.2742 H       1  LIG1        0.0000
     35 C           8.6174    2.4020   10.7005 C.ar    1  LIG1        0.0000
     36 H           8.4555    1.7210   10.0899 H       1  LIG1        0.0000
     37 C          10.3749    2.7495    7.9800 C.ar    1  LIG1        0.0000
     38 C          11.2470    2.8054    9.0612 C.ar    1  LIG1        0.0000
     39 H          11.0838    3.3947    9.7631 H       1  LIG1        0.0000
     40 C          12.3621    1.9777    9.0913 C.ar    1  LIG1        0.0000
     41 H          12.9418    2.0115    9.8181 H       1  LIG1        0.0000
     42 C          12.6167    1.1096    8.0548 C.ar    1  LIG1        0.0000
     43 H          13.3661    0.5590    8.0868 H       1  LIG1        0.0000
     44 C          11.7706    1.0505    6.9733 C.ar    1  LIG1        0.0000
     45 H          11.9430    0.4628    6.2746 H       1  LIG1        0.0000
     46 C          10.6621    1.8718    6.9351 C.ar    1  LIG1        0.0000
     47 H          10.0967    1.8392    6.1970 H       1  LIG1        0.0000
     48 C           7.7779   10.0728   18.6392 C.ar    2  LIG2        0.0000
     49 C           8.8799    9.8986   19.4718 C.ar    2  LIG2        0.0000
     50 H           9.5745   10.5185   19.4905 H       2  LIG2        0.0000
     51 C           8.9047    8.7823   20.2633 C.ar    2  LIG2        0.0000
     52 H           9.6319    8.6387   20.8238 H       2  LIG2        0.0000
     53 C           7.8745    7.8618   20.2504 C.ar    2  LIG2        0.0000
     54 H           7.9228    7.1136   20.8011 H       2  LIG2        0.0000
     55 C           6.7738    8.0319   19.4329 C.ar    2  LIG2        0.0000
     56 H           6.0766    7.4160   19.4355 H       2  LIG2        0.0000
     57 C           6.7386    9.1488   18.6068 C.ar    2  LIG2        0.0000
     58 C           6.0087   10.6171   17.0247 C.ar    2  LIG2        0.0000
     59 C           5.1378   11.1731   16.0354 C.2     2  LIG2        0.0000
     60 C           4.0280   10.4428   15.6937 C.2     2  LIG2        0.0000
     61 C           5.4943   12.5061   15.4759 C.ar    2  LIG2        0.0000
     62 C           6.6432   12.6806   14.7236 C.ar    2  LIG2        0.0000
     63 H           7.1969   11.9540   14.5491 H       2  LIG2        0.0000
     64 C           6.9749   13.9351   14.2262 C.ar    2  LIG2        0.0000
     65 H           7.7505   14.0483   13.7272 H       2  LIG2        0.0000
     66 C           6.1602   15.0025   14.4695 C.ar    2  LIG2        0.0000
     67 H           6.3821   15.8385   14.1285 H       2  LIG2        0.0000
     68 C           5.0112   14.8505   15.2148 C.ar    2  LIG2        0.0000
     69 H           4.4615   15.5818   15.3808 H       2  LIG2        0.0000
     70 C           4.6782   13.6102   15.7112 C.ar    2  LIG2        0.0000
     71 H           3.9000   13.5078   16.2092 H       2  LIG2        0.0000
     72 C           3.0409   10.7764   14.6404 C.ar    2  LIG2        0.0000
     73 C           3.3582   11.5141   13.5007 C.ar    2  LIG2        0.0000
     74 H           4.2173   11.8510   13.3874 H       2  LIG2        0.0000
     75 C           2.3920   11.7456   12.5350 C.ar    2  LIG2        0.0000
     76 H           2.6048   12.2462   11.7823 H       2  LIG2        0.0000
     77 C           1.1216   11.2413   12.6800 C.ar    2  LIG2        0.0000
     78 H           0.4818   11.3899   12.0218 H       2  LIG2        0.0000
     79 C           0.8017   10.5151   13.8094 C.ar    2  LIG2        0.0000
     80 H          -0.0614   10.1858   13.9181 H       2  LIG2        0.0000
     81 C           1.7535   10.2754   14.7740 C.ar    2  LIG2        0.0000
     82 H           1.5315    9.7720   15.5232 H       2  LIG2        0.0000
@<TRIPOS>BOND
     1    21    20    1
     2     5     3    1
     3    19    18    1
     4     6     3    1
     5    20    18   ar
     6    20    22   ar
     7    18    16   ar
     8     3     9    1
     9     3    11    1
    10    47    46    1
    11    45    44    1
    12     9    25    1
    13    46    44   ar
    14    46    37   ar
    15    44    42   ar
    16    22    11   ar
    17    22    13   ar
    18    16    17    1
    19    16    14   ar
    20    11    23   ar
    21    25    37    1
    22    25    24    2
    23    37    38   ar
    24    42    43    1
    25    42    40   ar
    26    13    14   ar
    27    13     1   ar
    28    14    15    1
    29    23    24    1
    30    23     1   ar
    31    24    26    1
    32    38    40   ar
    33    38    39    1
    34    40    41    1
    35    36    35    1
    36    26    35   ar
    37    26    27   ar
    38    35    33   ar
    39    28    27    1
    40    27    29   ar
    41    76    75    1
    42    33    34    1
    43    33    31   ar
    44    78    77    1
    45    75    77   ar
    46    75    73   ar
    47    29    31   ar
    48    29    30    1
    49    77    79   ar
    50    31    32    1
    51    74    73    1
    52    73    72   ar
    53    65    64    1
    54    79    80    1
    55    79    81   ar
    56    67    66    1
    57    64    66   ar
    58    64    62   ar
    59    66    68   ar
    60    63    62    1
    61    72    81   ar
    62    72    60    1
    63    62    61   ar
    64    81    82    1
    65    68    69    1
    66    68    70   ar
    67    61    70   ar
    68    61    59    1
    69    60    59    2
    70    60    10    1
    71    70    71    1
    72    59    58    1
    73    10     4    1
    74    58     2   ar
    75    58    12   ar
    76     7     4    1
    77     2    48   ar
    78     4    12    1
    79     4     8    1
    80    12    57   ar
    81    57    48   ar
    82    57    55   ar
    83    48    49   ar
    84    55    56    1
    85    55    53   ar
    86    49    50    1
    87    49    51   ar
    88    53    51   ar
    89    53    54    1
    90    51    52    1
