@<TRIPOS>MOLECULE
?
 35 36 0 0 0
SMALL
GASTEIGER

@<TRIPOS>ATOM
      1 S           5.1051    0.9059    8.7825 S.3     1  LIG1        0.1264
      2 O           6.2818    1.7338    8.9318 O.2     1  LIG1       -0.1434
      3 O           5.1152   -0.2939    9.5983 O.3     1  LIG1       -0.0460
      4 O           3.8636    1.6510    8.8492 O.2     1  LIG1       -0.1434
      5 C           5.1532    0.2093    7.1256 C.3     1  LIG1        0.1620
      6 H           5.9866   -0.3150    7.0219 H       1  LIG1        0.0735
      7 H           4.3899   -0.4100    7.0156 H       1  LIG1        0.0735
      8 N           5.0974    1.2213    6.0750 N.pl3   1  LIG1       -0.2919
      9 C           6.0858    1.4883    5.1516 C.2     1  LIG1        0.0094
     10 H           6.9360    1.0681    5.0958 H       1  LIG1        0.0794
     11 C           5.6175    2.4580    4.3436 C.2     1  LIG1        0.0125
     12 H           6.0743    2.8462    3.6063 H       1  LIG1        0.0797
     13 N           4.3483    2.7851    4.7858 N.pl3   1  LIG1       -0.2824
     14 C           4.0546    2.0118    5.8292 C.3     1  LIG1        0.1310
     15 H           3.2386    2.0219    6.3168 H       1  LIG1        0.0750
     16 C           3.4816    3.8421    4.2926 C.ar    1  LIG1        0.0411
     17 C           3.8423    5.1637    4.5517 C.ar    1  LIG1       -0.0286
     18 C           2.9666    6.1568    4.1277 C.ar    1  LIG1       -0.0541
     19 H           3.1842    7.0670    4.2957 H       1  LIG1        0.0623
     20 C           1.7824    5.8575    3.4634 C.ar    1  LIG1       -0.0498
     21 C           1.4840    4.5239    3.2035 C.ar    1  LIG1       -0.0541
     22 H           0.6853    4.3157    2.7332 H       1  LIG1        0.0623
     23 C           2.3142    3.4897    3.6093 C.ar    1  LIG1       -0.0286
     24 C           5.1143    5.5260    5.2701 C.3     1  LIG1       -0.0379
     25 H           5.1349    6.4930    5.4295 H       1  LIG1        0.0278
     26 H           5.8839    5.2673    4.7213 H       1  LIG1        0.0278
     27 H           5.1508    5.0537    6.1276 H       1  LIG1        0.0278
     28 C           0.8526    6.9606    3.0245 C.3     1  LIG1       -0.0397
     29 H           0.0614    6.9699    3.6024 H       1  LIG1        0.0278
     30 H           0.5766    6.8059    2.0964 H       1  LIG1        0.0278
     31 H           1.3143    7.8222    3.0881 H       1  LIG1        0.0278
     32 C           1.9727    2.0519    3.3213 C.3     1  LIG1       -0.0379
     33 H           1.7265    1.6011    4.1552 H       1  LIG1        0.0278
     34 H           2.7489    1.6054    2.9248 H       1  LIG1        0.0278
     35 H           1.2193    2.0133    2.6947 H       1  LIG1        0.0278
@<TRIPOS>BOND
     1    30    28    1
     2    35    32    1
     3    22    21    1
     4    34    32    1
     5    28    31    1
     6    28    20    1
     7    28    29    1
     8    21    20   ar
     9    21    23   ar
    10    32    23    1
    11    32    33    1
    12    20    18   ar
    13    12    11    1
    14    23    16   ar
    15    18    19    1
    16    18    17   ar
    17    16    17   ar
    18    16    13    1
    19    11    13    1
    20    11     9    2
    21    17    24    1
    22    26    24    1
    23    13    14    1
    24    10     9    1
    25     9     8    1
    26    24    25    1
    27    24    27    1
    28    14     8    1
    29    14    15    1
    30     8     5    1
    31     7     5    1
    32     6     5    1
    33     5     1    1
    34     1     4    2
    35     1     2    2
    36     1     3    1
