@<TRIPOS>MOLECULE
?
 30 31 0 0 0
SMALL
GASTEIGER

@<TRIPOS>ATOM
      1 P           2.1895    1.2148    1.1028 P.3     1  LIG1        0.1162
      2 H           1.8381    0.9590    0.2245 H       1  LIG1        0.1043
      3 S           3.5870    3.7525    2.0852 S.2     1  LIG1       -0.0856
      4 C           2.3654    2.9972    1.0916 C.ar    1  LIG1        0.0478
      5 C           2.0763    5.2567    0.5915 C.ar    1  LIG1       -0.0101
      6 C           1.6413    3.9033    0.3580 C.ar    1  LIG1       -0.0367
      7 H           0.9506    3.6718   -0.2210 H       1  LIG1        0.0636
      8 C           0.9265    0.7586    2.3255 C.3     1  LIG1        0.0174
      9 C           3.2296    7.6921    1.2837 C.ar    1  LIG1       -0.0607
     10 H           3.6047    8.5154    1.5016 H       1  LIG1        0.0618
     11 C           3.7142    6.5503    1.8813 C.ar    1  LIG1       -0.0474
     12 H           4.4030    6.5883    2.5050 H       1  LIG1        0.0629
     13 O           3.4863    0.5140    1.2662 O.2     1  LIG1       -0.3184
     14 C           1.6014    6.4492    0.0046 C.ar    1  LIG1       -0.0535
     15 H           0.9033    6.4273   -0.6105 H       1  LIG1        0.0624
     16 C           2.1816    7.6383    0.3533 C.ar    1  LIG1       -0.0611
     17 H           1.8743    8.4265   -0.0339 H       1  LIG1        0.0618
     18 C          -0.3565    1.5260    2.0606 C.3     1  LIG1       -0.0533
     19 H          -1.0156    1.2821    2.7144 H       1  LIG1        0.0239
     20 H          -0.6805    1.3136    1.1823 H       1  LIG1        0.0239
     21 H          -0.1829    2.4685    2.1179 H       1  LIG1        0.0239
     22 C           3.1312    5.3256    1.5162 C.ar    1  LIG1        0.0200
     23 C           1.4575    1.0840    3.7178 C.3     1  LIG1       -0.0533
     24 H           0.7993    0.8465    4.3750 H       1  LIG1        0.0239
     25 H           1.6431    2.0239    3.7774 H       1  LIG1        0.0239
     26 H           2.2632    0.5876    3.8780 H       1  LIG1        0.0239
     27 C           0.6415   -0.7328    2.1413 C.3     1  LIG1       -0.0533
     28 H          -0.0214   -1.0131    2.7775 H       1  LIG1        0.0239
     29 H           1.4500   -1.2314    2.2817 H       1  LIG1        0.0239
     30 H           0.3184   -0.8892    1.2513 H       1  LIG1        0.0239
@<TRIPOS>BOND
     1    15    14    1
     2     7     6    1
     3    17    16    1
     4    14    16   ar
     5    14     5   ar
     6     2     1    1
     7    16     9   ar
     8     6     5   ar
     9     6     4   ar
    10     5    22   ar
    11     4     1    1
    12     4     3   ar
    13     1    13    2
    14     1     8    1
    15    20    18    1
    16    30    27    1
    17     9    10    1
    18     9    11   ar
    19    22    11   ar
    20    22     3   ar
    21    11    12    1
    22    18    21    1
    23    18     8    1
    24    18    19    1
    25    27    29    1
    26    27     8    1
    27    27    28    1
    28     8    23    1
    29    23    25    1
    30    23    26    1
    31    23    24    1
