@<TRIPOS>MOLECULE
?
 23 23 0 0 0
SMALL
GASTEIGER

@<TRIPOS>ATOM
      1 P           7.2173    4.8349    3.2729 P.3     1  LIG1        0.1170
      2 CL          8.5963    5.8843    4.4149 Cl      1  LIG1       -0.0723
      3 CL          8.4012    4.2799    1.6463 Cl      1  LIG1       -0.0723
      4 C           6.1955    6.1647    2.5721 C.ar    1  LIG1        0.0117
      5 C           4.8133    5.9718    2.7744 C.ar    1  LIG1       -0.0402
      6 C           4.2484    4.8038    3.5552 C.3     1  LIG1       -0.0390
      7 H           3.2902    4.8145    3.4986 H       1  LIG1        0.0278
      8 H           4.5160    4.8743    4.4751 H       1  LIG1        0.0278
      9 H           4.5820    3.9817    3.1869 H       1  LIG1        0.0278
     10 C           3.9148    6.9043    2.2629 C.ar    1  LIG1       -0.0552
     11 H           2.9746    6.7690    2.3997 H       1  LIG1        0.0623
     12 C           4.3382    8.0232    1.5612 C.ar    1  LIG1       -0.0499
     13 C           3.3449    8.9955    0.9883 C.3     1  LIG1       -0.0397
     14 H           3.8062    9.7777    0.6756 H       1  LIG1        0.0278
     15 H           2.7143    9.2453    1.6664 H       1  LIG1        0.0278
     16 H           2.8809    8.5841    0.2558 H       1  LIG1        0.0278
     17 C           5.7064    8.2097    1.3874 C.ar    1  LIG1       -0.0552
     18 H           6.0100    8.9848    0.9098 H       1  LIG1        0.0623
     19 C           6.6524    7.3135    1.8823 C.ar    1  LIG1       -0.0402
     20 C           8.1049    7.6595    1.6909 C.3     1  LIG1       -0.0390
     21 H           8.1877    8.3236    1.0035 H       1  LIG1        0.0278
     22 H           8.5908    6.8715    1.4358 H       1  LIG1        0.0278
     23 H           8.4630    8.0033    2.5132 H       1  LIG1        0.0278
@<TRIPOS>BOND
     1    16    13    1
     2    14    13    1
     3    18    17    1
     4    13    12    1
     5    13    15    1
     6    21    20    1
     7    17    12   ar
     8    17    19   ar
     9    22    20    1
    10    12    10   ar
    11     3     1    1
    12    20    19    1
    13    20    23    1
    14    19     4   ar
    15    10    11    1
    16    10     5   ar
    17     4     5   ar
    18     4     1    1
    19     5     6    1
    20     9     6    1
    21     1     2    1
    22     7     6    1
    23     6     8    1
