@<TRIPOS>MOLECULE
C29 H36 N2
 67 70 0 0 0
SMALL
GASTEIGER

@<TRIPOS>ATOM
      1 N          -2.4818    2.7369    8.7766 N.3     1  LIG1       -0.3145
      2 C          -0.7779    3.3922   12.1682 C.3     1  LIG1        0.0115
      3 H          -0.7945    4.2282   12.7158 H       1  LIG1        0.0398
      4 N          -2.0883    2.6012    5.8694 N.pl3   1  LIG1       -0.3422
      5 C           0.6730    3.0666   11.8233 C.ar    1  LIG1       -0.0322
      6 C           1.5610    3.7836   11.0155 C.ar    1  LIG1       -0.0574
      7 H           1.2885    4.5915   10.5970 H       1  LIG1        0.0621
      8 C           2.8646    3.2875   10.8336 C.ar    1  LIG1       -0.0614
      9 H           3.4732    3.7574   10.2755 H       1  LIG1        0.0618
     10 C           3.2744    2.1047   11.4692 C.ar    1  LIG1       -0.0612
     11 H           4.1595    1.7861   11.3414 H       1  LIG1        0.0618
     12 C           2.3899    1.3862   12.2938 C.ar    1  LIG1       -0.0537
     13 H           2.6716    0.5905   12.7301 H       1  LIG1        0.0624
     14 C           1.0817    1.8695   12.4596 C.ar    1  LIG1       -0.0138
     15 C          -0.0657    1.3398   13.2344 C.ar    1  LIG1       -0.0138
     16 C          -0.1823    0.1948   14.0431 C.ar    1  LIG1       -0.0537
     17 H           0.5567   -0.3901   14.1617 H       1  LIG1        0.0624
     18 C          -1.4080   -0.0677   14.6710 C.ar    1  LIG1       -0.0612
     19 H          -1.4996   -0.8373   15.2204 H       1  LIG1        0.0618
     20 C          -2.5014    0.7962   14.4947 C.ar    1  LIG1       -0.0614
     21 H          -3.3281    0.6011   14.9203 H       1  LIG1        0.0618
     22 C          -2.3871    1.9466   13.6949 C.ar    1  LIG1       -0.0574
     23 H          -3.1268    2.5324   13.5830 H       1  LIG1        0.0621
     24 C          -1.1640    2.2158   13.0641 C.ar    1  LIG1       -0.0322
     25 C          -1.6907    3.5928   10.9370 C.3     1  LIG1       -0.0295
     26 H          -2.5916    3.8599   11.2499 H       1  LIG1        0.0286
     27 H          -1.3305    4.3375   10.3927 H       1  LIG1        0.0286
     28 C          -1.8283    2.3555   10.0448 C.3     1  LIG1       -0.0032
     29 H          -0.9336    1.9743    9.8597 H       1  LIG1        0.0424
     30 H          -2.3694    1.6672   10.5070 H       1  LIG1        0.0424
     31 C          -2.9812    1.5913    7.9904 C.3     1  LIG1        0.0114
     32 H          -3.8004    1.2258    8.4081 H       1  LIG1        0.0439
     33 H          -2.2985    0.8750    7.9652 H       1  LIG1        0.0439
     34 C          -3.2888    2.0700    6.5671 C.3     1  LIG1        0.0217
     35 H          -3.6585    1.3150    6.0450 H       1  LIG1        0.0474
     36 H          -3.9794    2.7778    6.6065 H       1  LIG1        0.0474
     37 C          -1.2765    1.6370    5.1726 C.ar    1  LIG1        0.0341
     38 C          -1.7658    1.1211    3.9352 C.ar    1  LIG1       -0.0237
     39 C          -0.9701    0.2084    3.2154 C.ar    1  LIG1       -0.0566
     40 H          -1.3050   -0.1704    2.4117 H       1  LIG1        0.0621
     41 C           0.3021   -0.1487    3.6636 C.ar    1  LIG1       -0.0611
     42 H           0.8362   -0.7480    3.1547 H       1  LIG1        0.0618
     43 C           0.7860    0.3766    4.8599 C.ar    1  LIG1       -0.0566
     44 H           1.6594    0.1406    5.1506 H       1  LIG1        0.0621
     45 C           0.0099    1.2502    5.6498 C.ar    1  LIG1       -0.0237
     46 C           0.6015    1.7361    6.9808 C.3     1  LIG1       -0.0198
     47 H          -0.0853    2.3051    7.4323 H       1  LIG1        0.0344
     48 C           1.8550    2.6054    6.7418 C.3     1  LIG1       -0.0586
     49 H           2.5337    2.0780    6.2707 H       1  LIG1        0.0235
     50 H           2.2135    2.9049    7.6038 H       1  LIG1        0.0235
     51 H           1.6133    3.3852    6.2007 H       1  LIG1        0.0235
     52 H          -3.1594    3.2901    8.9639 H       1  LIG1        0.1220
     53 H          -1.5957    3.0438    6.4765 H       1  LIG1        0.1461
     54 C           0.9347    0.5566    7.9217 C.3     1  LIG1       -0.0586
     55 H           0.1272    0.0215    8.0738 H       1  LIG1        0.0235
     56 H           1.2613    0.9041    8.7782 H       1  LIG1        0.0235
     57 H           1.6260   -0.0038    7.5109 H       1  LIG1        0.0235
     58 C          -3.1031    1.5756    3.3374 C.3     1  LIG1       -0.0198
     59 H          -3.4576    2.3154    3.9090 H       1  LIG1        0.0344
     60 C          -4.1589    0.4419    3.3221 C.3     1  LIG1       -0.0586
     61 H          -3.8279   -0.3054    2.7803 H       1  LIG1        0.0235
     62 H          -4.9948    0.7790    2.9375 H       1  LIG1        0.0235
     63 H          -4.3213    0.1345    4.2376 H       1  LIG1        0.0235
     64 C          -2.9167    2.1333    1.9031 C.3     1  LIG1       -0.0586
     65 H          -2.2612    2.8616    1.9188 H       1  LIG1        0.0235
     66 H          -3.7736    2.4731    1.5702 H       1  LIG1        0.0235
     67 H          -2.5972    1.4184    1.3130 H       1  LIG1        0.0235
@<TRIPOS>BOND
     1    67    64    1
     2    66    64    1
     3    64    65    1
     4    64    58    1
     5    40    39    1
     6    61    60    1
     7    62    60    1
     8    42    41    1
     9    39    41   ar
    10    39    38   ar
    11    60    58    1
    12    60    63    1
    13    58    59    1
    14    58    38    1
    15    41    43   ar
    16    38    37   ar
    17    43    44    1
    18    43    45   ar
    19    37    45   ar
    20    37     4    1
    21    45    46    1
    22     4    53    1
    23     4    34    1
    24    35    34    1
    25    51    48    1
    26    49    48    1
    27    34    36    1
    28    34    31    1
    29    48    46    1
    30    48    50    1
    31    46    47    1
    32    46    54    1
    33    57    54    1
    34    54    55    1
    35    54    56    1
    36    33    31    1
    37    31    32    1
    38    31     1    1
    39     1    52    1
    40     1    28    1
    41    29    28    1
    42    28    30    1
    43    28    25    1
    44     9     8    1
    45    27    25    1
    46     7     6    1
    47     8     6   ar
    48     8    10   ar
    49    25    26    1
    50    25     2    1
    51     6     5   ar
    52    11    10    1
    53    10    12   ar
    54     5     2    1
    55     5    14   ar
    56     2     3    1
    57     2    24    1
    58    12    14   ar
    59    12    13    1
    60    14    15    1
    61    24    15   ar
    62    24    22   ar
    63    15    16   ar
    64    23    22    1
    65    22    20   ar
    66    16    17    1
    67    16    18   ar
    68    20    18   ar
    69    20    21    1
    70    18    19    1
