@<TRIPOS>MOLECULE
?
 43 44 0 0 0
SMALL
GASTEIGER

@<TRIPOS>ATOM
      1 O           2.2804    3.5477    6.0729 O.3     1  LIG1       -0.4860
      2 O           4.1653    1.4988    6.8840 O.3     1  LIG1       -0.3742
      3 O           6.2353    3.5526    6.8762 O.3     1  LIG1       -0.3752
      4 O           5.9623    5.8591    5.0453 O.3     1  LIG1       -0.3742
      5 O           3.1574    5.8083    5.2875 O.3     1  LIG1       -0.4860
      6 O          -1.5439    2.5170    2.8587 O.2     1  LIG1       -0.1261
      7 O          -2.3590    4.5098    2.6811 O.2     1  LIG1       -0.1261
      8 O          -0.4486    5.6080    0.8889 O.2     1  LIG1       -0.1261
      9 O          -0.6164    7.3892    2.1005 O.2     1  LIG1       -0.1261
     10 N          -1.4576    3.7320    2.9638 N.pl3   1  LIG1        0.0588
     11 N          -0.3191    6.2163    1.9345 N.pl3   1  LIG1        0.0588
     12 C           1.5560    4.1281    5.0918 C.ar    1  LIG1        0.1643
     13 C           2.0461    5.3826    4.6590 C.ar    1  LIG1        0.1643
     14 C           1.4033    6.0594    3.6410 C.ar    1  LIG1        0.0162
     15 H           1.7240    6.8811    3.3453 H       1  LIG1        0.0679
     16 C           0.2766    5.4987    3.0667 C.ar    1  LIG1        0.1599
     17 C          -0.2126    4.2868    3.4949 C.ar    1  LIG1        0.1599
     18 C           0.4300    3.5854    4.5052 C.ar    1  LIG1        0.0162
     19 H           0.1057    2.7596    4.7841 H       1  LIG1        0.0679
     20 C           1.9421    2.2100    6.4656 C.3     1  LIG1        0.1130
     21 H           1.9993    1.6085    5.7064 H       1  LIG1        0.0720
     22 H           1.0393    2.1776    6.8193 H       1  LIG1        0.0720
     23 C           2.9315    1.8201    7.5179 C.3     1  LIG1        0.0818
     24 H           3.0601    2.5531    8.1392 H       1  LIG1        0.0594
     25 H           2.6039    1.0530    8.0137 H       1  LIG1        0.0594
     26 C           5.2932    1.5360    7.7599 C.3     1  LIG1        0.0711
     27 H           6.0182    1.0325    7.3570 H       1  LIG1        0.0583
     28 H           5.0565    1.0965    8.5922 H       1  LIG1        0.0583
     29 C           5.7792    2.9217    8.0662 C.3     1  LIG1        0.0711
     30 H           5.0587    3.4414    8.4553 H       1  LIG1        0.0583
     31 H           6.5025    2.8791    8.7111 H       1  LIG1        0.0583
     32 C           6.7239    4.8587    7.1586 C.3     1  LIG1        0.0711
     33 H           7.5103    4.7930    7.7220 H       1  LIG1        0.0583
     34 H           6.0475    5.3579    7.6438 H       1  LIG1        0.0583
     35 C           7.0723    5.5866    5.9003 C.3     1  LIG1        0.0711
     36 H           7.4956    6.4263    6.1349 H       1  LIG1        0.0583
     37 H           7.7207    5.0593    5.4066 H       1  LIG1        0.0583
     38 C           5.1812    6.9622    5.4700 C.3     1  LIG1        0.0818
     39 H           5.6479    7.7916    5.2827 H       1  LIG1        0.0594
     40 H           5.0249    6.9093    6.4250 H       1  LIG1        0.0594
     41 C           3.8791    6.9295    4.7346 C.3     1  LIG1        0.1130
     42 H           3.3878    7.7540    4.8721 H       1  LIG1        0.0720
     43 H           4.0255    6.8077    3.7836 H       1  LIG1        0.0720
@<TRIPOS>BOND
     1     8    11    2
     2    11     9    2
     3    11    16    1
     4     7    10    2
     5     6    10    2
     6    10    17    1
     7    16    17   ar
     8    16    14   ar
     9    15    14    1
    10    17    18   ar
    11    14    13   ar
    12    43    41    1
    13    18    19    1
    14    18    12   ar
    15    13    12   ar
    16    13     5    1
    17    41    42    1
    18    41     5    1
    19    41    38    1
    20     4    38    1
    21     4    35    1
    22    12     1    1
    23    39    38    1
    24    37    35    1
    25    38    40    1
    26    21    20    1
    27    35    36    1
    28    35    32    1
    29     1    20    1
    30    20    22    1
    31    20    23    1
    32     3    32    1
    33     3    29    1
    34     2    23    1
    35     2    26    1
    36    32    34    1
    37    32    33    1
    38    27    26    1
    39    23    25    1
    40    23    24    1
    41    26    29    1
    42    26    28    1
    43    29    30    1
    44    29    31    1
