@<TRIPOS>MOLECULE
C23 H39 B N2 O2
 67 71 0 0 0
SMALL
GASTEIGER

@<TRIPOS>ATOM
      1 O           9.6801   12.4705   19.4061 O.2     1  LIG1        0.0000
      2 O          11.7900   10.2240   20.8508 O.2     1  LIG1        0.0000
      3 N           8.7586   10.4003   19.0484 N.pl3   1  LIG1        0.0000
      4 N          10.1328    8.9945   19.8553 N.pl3   1  LIG1        0.0000
      5 C           7.3145   12.0599   21.1737 C.3     1  LIG1        0.0000
      6 H           6.6339   12.1857   21.8676 H       1  LIG1        0.0000
      7 H           7.9685   11.3950   21.4734 H       1  LIG1        0.0000
      8 H           7.7688   12.9115   21.0036 H       1  LIG1        0.0000
      9 C           6.6449   11.5714   19.8836 C.3     1  LIG1        0.0000
     10 C           7.6704   11.3646   18.7282 C.3     1  LIG1        0.0000
     11 H           7.2002   11.0942   17.8880 H       1  LIG1        0.0000
     12 C           8.9373    9.0489   19.1806 C.3     1  LIG1        0.0000
     13 C          11.0365    7.9913   20.4966 C.3     1  LIG1        0.0000
     14 H          10.4877    7.2992   20.9655 H       1  LIG1        0.0000
     15 C          12.0526    7.2909   19.5404 C.3     1  LIG1        0.0000
     16 C          13.3158    6.8894   20.3185 C.3     1  LIG1        0.0000
     17 H          13.0581    6.4355   21.1488 H       1  LIG1        0.0000
     18 H          13.8589    6.2847   19.7705 H       1  LIG1        0.0000
     19 H          13.8357    7.6917   20.5321 H       1  LIG1        0.0000
     20 C           5.6180   12.6024   19.3950 C.3     1  LIG1        0.0000
     21 H           5.2649   12.3243   18.5241 H       1  LIG1        0.0000
     22 H           4.8836   12.6635   20.0409 H       1  LIG1        0.0000
     23 H           6.0498   13.4774   19.3074 H       1  LIG1        0.0000
     24 C           9.8127   11.1362   19.5686 C.2     1  LIG1        0.0000
     25 C           8.5616   12.6020   18.4735 C.3     1  LIG1        0.0000
     26 H           8.0584   13.4369   18.6466 H       1  LIG1        0.0000
     27 H           8.8856   12.6132   17.5381 H       1  LIG1        0.0000
     28 C          10.6651   10.2535   20.0991 C.2     1  LIG1        0.0000
     29 C          11.6637    8.9434   21.5368 C.3     1  LIG1        0.0000
     30 H          12.5506    8.6117   21.8256 H       1  LIG1        0.0000
     31 H          11.0798    9.0277   22.3317 H       1  LIG1        0.0000
     32 C           8.9071    7.4741   17.0242 C.3     1  LIG1        0.0000
     33 H           9.9002    7.5473   17.1168 H       1  LIG1        0.0000
     34 C           8.4436    8.5664   16.0494 C.3     1  LIG1        0.0000
     35 H           8.7240    9.4484   16.4010 H       1  LIG1        0.0000
     36 H           8.8967    8.4316   15.1796 H       1  LIG1        0.0000
     37 C           6.9273    8.5846   15.8196 C.3     1  LIG1        0.0000
     38 H           6.6898    9.4170   15.3393 H       1  LIG1        0.0000
     39 H           6.6862    7.8226   15.2356 H       1  LIG1        0.0000
     40 C           6.0901    8.5029   17.1040 C.3     1  LIG1        0.0000
     41 H           5.9962    9.4185   17.4686 H       1  LIG1        0.0000
     42 H           5.1834    8.1886   16.8606 H       1  LIG1        0.0000
     43 C           6.6287    7.5906   18.2296 C.3     1  LIG1        0.0000
     44 H           6.1407    7.8106   19.0742 H       1  LIG1        0.0000
     45 C           6.3833    6.1036   17.8997 C.3     1  LIG1        0.0000
     46 H           6.6765    5.5552   18.6697 H       1  LIG1        0.0000
     47 H           5.4106    5.9608   17.7832 H       1  LIG1        0.0000
     48 C           7.1063    5.6098   16.6414 C.3     1  LIG1        0.0000
     49 H           7.0628    4.6211   16.6176 H       1  LIG1        0.0000
     50 H           6.6263    5.9502   15.8451 H       1  LIG1        0.0000
     51 C           8.5803    6.0413   16.5510 C.3     1  LIG1        0.0000
     52 H           8.8707    5.9534   15.6086 H       1  LIG1        0.0000
     53 H           9.1210    5.4082   17.0865 H       1  LIG1        0.0000
     54 C          12.4807    8.2066   18.3880 C.3     1  LIG1        0.0000
     55 H          13.1215    7.7344   17.8166 H       1  LIG1        0.0000
     56 H          11.6940    8.4562   17.8598 H       1  LIG1        0.0000
     57 H          12.8995    9.0150   18.7511 H       1  LIG1        0.0000
     58 C          11.4234    6.0029   19.0103 C.3     1  LIG1        0.0000
     59 H          10.5571    6.2077   18.5999 H       1  LIG1        0.0000
     60 H          12.0158    5.6013   18.3402 H       1  LIG1        0.0000
     61 H          11.2935    5.3736   19.7506 H       1  LIG1        0.0000
     62 C           5.8896   10.2821   20.2021 C.3     1  LIG1        0.0000
     63 H           5.2912   10.4333   20.9627 H       1  LIG1        0.0000
     64 H           5.3628   10.0101   19.4212 H       1  LIG1        0.0000
     65 H           6.5302    9.5748   20.4261 H       1  LIG1        0.0000
     66 B           8.2404    7.7217   18.5144 B       1  LIG1        0.0000
     67 H           8.4998    6.9407   19.0824 H       1  LIG1        0.0000
@<TRIPOS>BOND
     1    36    34    1
     2    39    37    1
     3    38    37    1
     4    52    51    1
     5    37    34    1
     6    37    40    1
     7    50    48    1
     8    34    35    1
     9    34    32    1
    10    51    48    1
    11    51    32    1
    12    51    53    1
    13    49    48    1
    14    48    45    1
    15    42    40    1
    16    32    33    1
    17    32    66    1
    18    40    41    1
    19    40    43    1
    20    27    25    1
    21    47    45    1
    22    55    54    1
    23    56    54    1
    24    11    10    1
    25    45    43    1
    26    45    46    1
    27    43    66    1
    28    43    44    1
    29    60    58    1
    30    54    57    1
    31    54    15    1
    32    25    26    1
    33    25    10    1
    34    25     1    1
    35    66    67    1
    36    66    12    1
    37    21    20    1
    38    59    58    1
    39    10     3    1
    40    10     9    1
    41    58    15    1
    42    58    61    1
    43     3    12    1
    44     3    24    1
    45    12     4    1
    46    23    20    1
    47    20     9    1
    48    20    22    1
    49     1    24    1
    50    64    62    1
    51    15    16    1
    52    15    13    1
    53    24    28    2
    54    18    16    1
    55     4    28    1
    56     4    13    1
    57     9    62    1
    58     9     5    1
    59    28     2    1
    60    62    65    1
    61    62    63    1
    62    16    19    1
    63    16    17    1
    64    13    14    1
    65    13    29    1
    66     2    29    1
    67     8     5    1
    68     5     7    1
    69     5     6    1
    70    29    30    1
    71    29    31    1
