@<TRIPOS>MOLECULE
C18 H10 Cl5 F2 P
 36 38 0 0 0
SMALL
GASTEIGER

@<TRIPOS>ATOM
      1 P           4.3749    4.5758   19.0274 P.3     1  LIG1        0.2108
      2 F           4.1515    6.2159   19.0240 F       1  LIG1       -0.1914
      3 F           4.5968    2.9308   19.1484 F       1  LIG1       -0.1914
      4 C           3.3629    3.9234   21.6001 C.ar    1  LIG1        0.0742
      5 C           3.3301    3.9490   22.9990 C.ar    1  LIG1        0.0798
      6 C           4.2674    4.6991   23.7001 C.ar    1  LIG1        0.0804
      7 C           5.2269    5.4315   23.0002 C.ar    1  LIG1        0.0798
      8 C           5.2406    5.4076   21.6062 C.ar    1  LIG1        0.0742
      9 CL          2.1646    2.9832   20.7995 Cl      1  LIG1       -0.0811
     10 CL          2.1413    3.0440   23.8517 Cl      1  LIG1       -0.0805
     11 CL          6.3779    6.3624   23.8755 Cl      1  LIG1       -0.0805
     12 CL          4.2433    4.7278   25.4140 Cl      1  LIG1       -0.0804
     13 CL          6.4698    6.3288   20.8147 Cl      1  LIG1       -0.0811
     14 C           4.3227    4.6392   20.8777 C.ar    1  LIG1        0.0704
     15 C           2.8764    4.3652   18.0171 C.ar    1  LIG1        0.0311
     16 C           1.8241    5.2810   18.0943 C.ar    1  LIG1       -0.0496
     17 H           1.8712    6.0078   18.7042 H       1  LIG1        0.0625
     18 C           0.7105    5.1298   17.2804 C.ar    1  LIG1       -0.0610
     19 H          -0.0157    5.7381   17.3533 H       1  LIG1        0.0618
     20 C           0.6546    4.0951   16.3625 C.ar    1  LIG1       -0.0617
     21 H          -0.1021    4.0054   15.7952 H       1  LIG1        0.0618
     22 C           1.6964    3.1926   16.2692 C.ar    1  LIG1       -0.0610
     23 H           1.6589    2.4893   15.6316 H       1  LIG1        0.0618
     24 C           2.8014    3.3125   17.1083 C.ar    1  LIG1       -0.0496
     25 H           3.5046    2.6756   17.0606 H       1  LIG1        0.0625
     26 C           5.9174    4.7291   18.0718 C.ar    1  LIG1        0.0311
     27 C           6.0558    5.8027   17.1949 C.ar    1  LIG1       -0.0496
     28 H           5.3677    6.4551   17.1369 H       1  LIG1        0.0625
     29 C           7.1908    5.9272   16.4057 C.ar    1  LIG1       -0.0610
     30 H           7.2630    6.6481   15.7921 H       1  LIG1        0.0618
     31 C           8.2075    5.0147   16.5069 C.ar    1  LIG1       -0.0617
     32 H           8.9892    5.1116   15.9761 H       1  LIG1        0.0618
     33 C           8.0937    3.9551   17.3804 C.ar    1  LIG1       -0.0610
     34 H           8.8056    3.3311   17.4595 H       1  LIG1        0.0618
     35 C           6.9385    3.7914   18.1514 C.ar    1  LIG1       -0.0496
     36 H           6.8527    3.0411   18.7279 H       1  LIG1        0.0625
@<TRIPOS>BOND
     1    23    22    1
     2    30    29    1
     3    21    20    1
     4    32    31    1
     5    22    20   ar
     6    22    24   ar
     7    20    18   ar
     8    29    31   ar
     9    29    27   ar
    10    31    33   ar
    11    25    24    1
    12    24    15   ar
    13    28    27    1
    14    27    26   ar
    15    18    19    1
    16    18    16   ar
    17    33    34    1
    18    33    35   ar
    19    15    16   ar
    20    15     1    1
    21    26    35   ar
    22    26     1    1
    23    16    17    1
    24    35    36    1
    25     2     1    1
    26     1     3    1
    27     1    14    1
    28     9     4    1
    29    13     8    1
    30    14     4   ar
    31    14     8   ar
    32     4     5   ar
    33     8     7   ar
    34     5     6   ar
    35     5    10    1
    36     7     6   ar
    37     7    11    1
    38     6    12    1
