@<TRIPOS>MOLECULE
C32 H20 F17 N3 O
 73 76 0 0 0
SMALL
GASTEIGER

@<TRIPOS>ATOM
      1 F           4.4373    4.9060    6.8336 F       1  LIG1       -0.1989
      2 F           2.9631    5.1480    5.2466 F       1  LIG1       -0.1989
      3 F           5.1199    7.5585    6.5976 F       1  LIG1       -0.1923
      4 F           3.5833    7.8054    5.0647 F       1  LIG1       -0.1923
      5 F           3.4009    6.9102    8.4307 F       1  LIG1       -0.1920
      6 F           2.8861    8.7459    7.3862 F       1  LIG1       -0.1920
      7 F           1.4103    5.6047    7.4024 F       1  LIG1       -0.1920
      8 F           1.0738    7.0831    5.8346 F       1  LIG1       -0.1920
      9 F           0.9782    7.8069    9.2396 F       1  LIG1       -0.1920
     10 F           0.1754    8.8526    7.4944 F       1  LIG1       -0.1920
     11 F          -0.7288    5.8721    9.0430 F       1  LIG1       -0.1919
     12 F          -1.2909    6.3930    7.0050 F       1  LIG1       -0.1919
     13 F          -1.5872    8.6092    9.6819 F       1  LIG1       -0.1889
     14 F          -2.5565    8.5144    7.7291 F       1  LIG1       -0.1889
     15 F          -2.9018    6.4586   10.5112 F       1  LIG1       -0.1648
     16 F          -3.6459    6.0482    8.5308 F       1  LIG1       -0.1648
     17 F          -4.2499    7.8350    9.5688 F       1  LIG1       -0.1648
     18 O           6.1926    4.7285    2.0934 O.3     1  LIG1       -0.4920
     19 N           8.7501    7.3421   -5.7303 N.ar    1  LIG1       -0.2534
     20 N          11.1375    4.8206   -4.7972 N.ar    1  LIG1       -0.2436
     21 N          12.6900    2.0742   -3.1510 N.ar    1  LIG1       -0.2534
     22 C           9.2617    5.6526   -3.5452 C.ar    1  LIG1       -0.0264
     23 H           8.5208    6.2467   -3.5034 H       1  LIG1        0.0645
     24 C           8.3883    8.0588   -6.8039 C.ar    1  LIG1        0.0283
     25 H           7.7089    8.7136   -6.6983 H       1  LIG1        0.0830
     26 C           8.9507    7.8963   -8.0589 C.ar    1  LIG1       -0.0436
     27 H           8.6611    8.4183   -8.7983 H       1  LIG1        0.0633
     28 C           9.9354    6.9576   -8.2001 C.ar    1  LIG1       -0.0583
     29 H          10.3360    6.8157   -9.0492 H       1  LIG1        0.0619
     30 C          10.3533    6.2135   -7.1083 C.ar    1  LIG1       -0.0342
     31 H          11.0476    5.5714   -7.1919 H       1  LIG1        0.0639
     32 C           9.7240    6.4356   -5.8836 C.ar    1  LIG1        0.0891
     33 C          10.0656    5.6126   -4.6883 C.ar    1  LIG1        0.0904
     34 C          11.4222    4.0180   -3.7617 C.ar    1  LIG1        0.0904
     35 C          12.6010    3.1320   -3.9479 C.ar    1  LIG1        0.0891
     36 C          13.5229    3.4193   -4.9497 C.ar    1  LIG1       -0.0342
     37 H          13.4141    4.1771   -5.5113 H       1  LIG1        0.0639
     38 C          14.6047    2.5688   -5.1035 C.ar    1  LIG1       -0.0583
     39 H          15.2621    2.7439   -5.7665 H       1  LIG1        0.0619
     40 C          14.7188    1.4721   -4.2909 C.ar    1  LIG1       -0.0436
     41 H          15.4461    0.8688   -4.3829 H       1  LIG1        0.0633
     42 C          13.7406    1.2729   -3.3340 C.ar    1  LIG1        0.0283
     43 H          13.8229    0.5140   -2.7682 H       1  LIG1        0.0830
     44 C          10.6664    3.9802   -2.5946 C.ar    1  LIG1       -0.0264
     45 H          10.9069    3.3907   -1.8887 H       1  LIG1        0.0645
     46 C           9.5527    4.8135   -2.4649 C.ar    1  LIG1       -0.0137
     47 C           8.6931    4.7969   -1.2508 C.ar    1  LIG1       -0.0175
     48 C           9.0666    4.0889   -0.1140 C.ar    1  LIG1       -0.0506
     49 H           9.9000    3.6311   -0.1109 H       1  LIG1        0.0625
     50 C           8.2633    4.0294    1.0196 C.ar    1  LIG1       -0.0194
     51 H           8.5436    3.5315    1.7789 H       1  LIG1        0.0654
     52 C           7.0514    4.7014    1.0322 C.ar    1  LIG1        0.1205
     53 C           6.6523    5.4237   -0.0931 C.ar    1  LIG1       -0.0194
     54 H           5.8240    5.8907   -0.0889 H       1  LIG1        0.0654
     55 C           7.4609    5.4580   -1.2142 C.ar    1  LIG1       -0.0506
     56 H           7.1725    5.9434   -1.9786 H       1  LIG1        0.0625
     57 C           6.5195    3.8920    3.2127 C.3     1  LIG1        0.0898
     58 H           7.3733    4.1828    3.6205 H       1  LIG1        0.0696
     59 H           6.6153    2.9511    2.9209 H       1  LIG1        0.0696
     60 C           5.3862    4.0214    4.2145 C.3     1  LIG1       -0.0130
     61 H           5.5727    3.4456    4.9978 H       1  LIG1        0.0300
     62 H           4.5425    3.7135    3.8004 H       1  LIG1        0.0300
     63 C           5.2289    5.4637    4.6726 C.3     1  LIG1        0.0200
     64 H           6.0853    5.7774    5.0543 H       1  LIG1        0.0326
     65 H           5.0192    6.0315    3.8893 H       1  LIG1        0.0326
     66 C           4.1406    5.6240    5.7035 C.3     1  LIG1        0.3168
     67 C           3.9296    7.0824    6.1440 C.3     1  LIG1        0.3778
     68 C           2.9073    7.4052    7.2819 C.3     1  LIG1        0.3838
     69 C           1.4544    6.9050    7.1116 C.3     1  LIG1        0.3840
     70 C           0.4307    7.6467    8.0212 C.3     1  LIG1        0.3841
     71 C          -0.9136    6.8912    8.2001 C.3     1  LIG1        0.3868
     72 C          -2.0641    7.7830    8.7376 C.3     1  LIG1        0.4087
     73 C          -3.2390    6.9942    9.3525 C.3     1  LIG1        0.4603
@<TRIPOS>BOND
     1    29    28    1
     2    27    26    1
     3    28    26   ar
     4    28    30   ar
     5    26    24   ar
     6    31    30    1
     7    30    32   ar
     8    24    25    1
     9    24    19   ar
    10    32    19   ar
    11    32    33    1
    12    39    38    1
    13    37    36    1
    14    38    36   ar
    15    38    40   ar
    16    36    35   ar
    17    20    33   ar
    18    20    34   ar
    19    33    22   ar
    20    41    40    1
    21    40    42   ar
    22    35    34    1
    23    35    21   ar
    24    34    44   ar
    25    22    23    1
    26    22    46   ar
    27    42    21   ar
    28    42    43    1
    29    44    46   ar
    30    44    45    1
    31    46    47    1
    32    56    55    1
    33    47    55   ar
    34    47    48   ar
    35    55    53   ar
    36    48    49    1
    37    48    50   ar
    38    53    54    1
    39    53    52   ar
    40    50    52   ar
    41    50    51    1
    42    52    18    1
    43    18    57    1
    44    59    57    1
    45    57    58    1
    46    57    60    1
    47    62    60    1
    48    65    63    1
    49    60    63    1
    50    60    61    1
    51    63    64    1
    52    63    66    1
    53     4    67    1
    54     2    66    1
    55    66    67    1
    56    66     1    1
    57     8    69    1
    58    67     3    1
    59    67    68    1
    60    12    71    1
    61    69    68    1
    62    69     7    1
    63    69    70    1
    64    68     6    1
    65    68     5    1
    66    10    70    1
    67    14    72    1
    68    70    71    1
    69    70     9    1
    70    71    72    1
    71    71    11    1
    72    16    73    1
    73    72    73    1
    74    72    13    1
    75    73    17    1
    76    73    15    1
