@<TRIPOS>MOLECULE
C9 H23 B10 N2, Br
 46 51 0 0 0
SMALL
GASTEIGER

@<TRIPOS>ATOM
      1 N           8.2384    3.8226    4.7870 N.pl3   1  LIG1        0.0000
      2 C           8.7175   10.1000    2.4887 C.3     1  LIG1        0.0000
      3 H           9.5877    9.7100    2.3788 H       1  LIG1        0.0000
      4 H           8.6056   10.8167    1.8597 H       1  LIG1        0.0000
      5 H           8.0449    9.4307    2.3342 H       1  LIG1        0.0000
      6 N           8.8842    5.7662    5.4475 N.pl3   1  LIG1        0.0000
      7 C           8.5794   10.6371    3.8936 C.3     1  LIG1        0.0000
      8 C           8.5604    9.5374    5.1428 C.3     1  LIG1        0.0000
      9 B           9.9568   10.5283    4.9176 B       1  LIG1        0.0000
     10 H          10.9377   10.1463    4.5987 H       1  LIG1        0.0000
     11 C           8.6782    8.0769    4.7402 C.3     1  LIG1        0.0000
     12 H           9.4461    7.9702    4.1580 H       1  LIG1        0.0000
     13 H           7.8878    7.8212    4.2396 H       1  LIG1        0.0000
     14 B           9.3377   12.0931    4.3615 B       1  LIG1        0.0000
     15 H           9.9210   12.7348    3.6846 H       1  LIG1        0.0000
     16 C           8.8294    7.1474    5.9383 C.3     1  LIG1        0.0000
     17 H           9.6425    7.3610    6.4236 H       1  LIG1        0.0000
     18 H           8.0771    7.2572    6.5412 H       1  LIG1        0.0000
     19 B           7.5628   11.9771    4.2309 B       1  LIG1        0.0000
     20 H           7.0057   12.5432    3.4724 H       1  LIG1        0.0000
     21 C          10.0044    5.1160    4.9676 C.2     1  LIG1        0.0000
     22 H          10.8698    5.4536    4.9361 H       1  LIG1        0.0000
     23 B           7.0807   10.3426    4.6988 B       1  LIG1        0.0000
     24 H           6.2164    9.8430    4.2385 H       1  LIG1        0.0000
     25 C           9.6008    3.8962    4.5530 C.2     1  LIG1        0.0000
     26 H          10.1353    3.2322    4.1830 H       1  LIG1        0.0000
     27 B           9.3044   10.2035    6.5346 B       1  LIG1        0.0000
     28 H           9.8663    9.6143    7.2757 H       1  LIG1        0.0000
     29 C           7.8318    4.9604    5.3180 C.3     1  LIG1        0.0000
     30 H           6.9581    5.1636    5.5618 H       1  LIG1        0.0000
     31 B           9.7913   11.8547    6.0732 B       1  LIG1        0.0000
     32 H          10.6674   12.3490    6.5205 H       1  LIG1        0.0000
     33 C           7.3700    2.6746    4.5117 C.3     1  LIG1        0.0000
     34 H           7.1533    2.2320    5.3354 H       1  LIG1        0.0000
     35 H           7.8259    2.0617    3.9306 H       1  LIG1        0.0000
     36 H           6.5640    2.9769    4.0884 H       1  LIG1        0.0000
     37 B           8.3021   12.7584    5.6499 B       1  LIG1        0.0000
     38 H           8.2175   13.8414    5.8240 H       1  LIG1        0.0000
     39 B           6.9009   11.6573    5.8545 B       1  LIG1        0.0000
     40 H           5.9093   12.0245    6.1625 H       1  LIG1        0.0000
     41 B           7.5223   10.0846    6.4008 B       1  LIG1        0.0000
     42 H           6.9378    9.4201    7.0526 H       1  LIG1        0.0000
     43 B           8.2747   11.5890    6.9906 B       1  LIG1        0.0000
     44 H           8.1723   11.9154    8.0364 H       1  LIG1        0.0000
     45 BR          5.9521    5.8563    8.1615 Br      2  LIG2        0.0000
     46 BR          5.9521    6.2921    2.7205 Br      3  LIG3        0.0000
@<TRIPOS>BOND
     1     4     2    1
     2     5     2    1
     3     3     2    1
     4     2     7    1
     5    20    19    1
     6    15    14    1
     7     7    19    1
     8     7    14    1
     9     7     8    1
    10    35    33    1
    11    36    33    1
    12    12    11    1
    13    26    25    1
    14    19    23    1
    15    19    37    1
    16    24    23    1
    17    13    11    1
    18    14     9    1
    19    14    37    1
    20    33     1    1
    21    33    34    1
    22    25     1    1
    23    25    21    2
    24    10     9    1
    25    23    39    1
    26    23    41    1
    27    11     8    1
    28    11    16    1
    29     1    29    1
    30     9    31    1
    31     9    27    1
    32    22    21    1
    33    21     6    1
    34     8    41    1
    35     8    27    1
    36    29     6    1
    37    29    30    1
    38     6    16    1
    39    37    38    1
    40    37    43    1
    41    39    40    1
    42    39    41    1
    43    39    43    1
    44    16    17    1
    45    16    18    1
    46    31    32    1
    47    31    27    1
    48    31    43    1
    49    41    42    1
    50    27    28    1
    51    43    44    1
