@<TRIPOS>MOLECULE
4,4'-dibromo-2,2'-bipyridine
 10 10 0 0 0
SMALL
GASTEIGER

@<TRIPOS>ATOM
      1 C           3.0506    5.1944    3.9751 C.ar    1  LIG1        0.0294
      2 H           3.2950    4.4976    4.5735 H       1  LIG1        0.0830
      3 C           3.3486    5.0363    2.6347 C.ar    1  LIG1       -0.0296
      4 H           3.7720    4.2501    2.3121 H       1  LIG1        0.0644
      5 C           3.0085    6.0620    1.7888 C.ar    1  LIG1        0.0214
      6 C           2.3804    7.1911    2.2543 C.ar    1  LIG1       -0.0202
      7 H           2.1482    7.9020    1.6693 H       1  LIG1        0.0650
      8 C           2.0983    7.2537    3.6111 C.ar    1  LIG1        0.0902
      9 BR          3.3982    5.9506   -0.0562 Br      1  LIG1       -0.0502
     10 N           2.4388    6.2687    4.4774 N.ar    1  LIG1       -0.2534
@<TRIPOS>BOND
     1     9     5    1
     2     7     6    1
     3     5     6   ar
     4     5     3   ar
     5     6     8   ar
     6     4     3    1
     7     3     1   ar
     8     8    10   ar
     9     1    10   ar
    10     1     2    1
