@<TRIPOS>MOLECULE
7041213.cif
 66 70 0 0 0
SMALL
GASTEIGER

@<TRIPOS>ATOM
      1 N           4.6349    0.4990   -1.7413 N.ar    1  LIG1       -0.2458
      2 N           4.2047    2.4405    1.1585 N.2     1  LIG1       -0.2535
      3 C           3.9587    1.2286   -0.8812 C.ar    1  LIG1        0.0826
      4 C           2.6413    1.6842   -1.1008 C.ar    1  LIG1       -0.0342
      5 H           2.1936    2.1673   -0.4430 H       1  LIG1        0.0639
      6 C           2.0369    1.4091   -2.2835 C.ar    1  LIG1       -0.0505
      7 H           1.1673    1.6968   -2.4431 H       1  LIG1        0.0625
      8 C           2.7357    0.6843   -3.2652 C.ar    1  LIG1        0.0004
      9 C           2.2179    0.4068   -4.5552 C.ar    1  LIG1       -0.0526
     10 H           1.3685    0.7084   -4.7844 H       1  LIG1        0.0624
     11 C           2.9449   -0.2938   -5.4593 C.ar    1  LIG1       -0.0611
     12 H           2.5976   -0.4549   -6.3059 H       1  LIG1        0.0618
     13 C           4.2139   -0.7744   -5.1253 C.ar    1  LIG1       -0.0597
     14 H           4.6974   -1.2678   -5.7474 H       1  LIG1        0.0618
     15 C           4.7523   -0.5295   -3.8958 C.ar    1  LIG1       -0.0357
     16 H           5.5976   -0.8564   -3.6867 H       1  LIG1        0.0639
     17 C           4.0339    0.2174   -2.9422 C.ar    1  LIG1        0.0717
     18 C           4.6972    1.6275    0.3266 C.2     1  LIG1        0.0536
     19 H           5.5439    1.2748    0.4815 H       1  LIG1        0.0851
     20 C           5.0065    2.9246    2.2183 C.ar    1  LIG1        0.0639
     21 C           4.4674    3.0043    3.4891 C.ar    1  LIG1       -0.0361
     22 H           3.6028    2.6974    3.6426 H       1  LIG1        0.0639
     23 C           5.1965    3.5317    4.5313 C.ar    1  LIG1       -0.0568
     24 H           4.8238    3.5527    5.3842 H       1  LIG1        0.0621
     25 C           6.4733    4.0325    4.3362 C.ar    1  LIG1       -0.0503
     26 C           6.9999    3.9707    3.0572 C.ar    1  LIG1       -0.0568
     27 H           7.8522    4.3075    2.8998 H       1  LIG1        0.0621
     28 C           6.2883    3.4198    2.0139 C.ar    1  LIG1       -0.0361
     29 H           6.6693    3.3799    1.1665 H       1  LIG1        0.0639
     30 C           7.2771    4.6241    5.4678 C.3     1  LIG1       -0.0397
     31 H           6.7120    4.7382    6.2343 H       1  LIG1        0.0278
     32 H           7.6291    5.4758    5.1999 H       1  LIG1        0.0278
     33 H           8.0014    4.0335    5.6896 H       1  LIG1        0.0278
     34 N           5.3280    4.7943   11.9544 N.ar    2  LIG2       -0.2458
     35 N           4.8929    2.8775   14.8724 N.2     2  LIG2       -0.2535
     36 C           4.6485    4.0756   12.8227 C.ar    2  LIG2        0.0826
     37 C           3.3301    3.6165   12.6007 C.ar    2  LIG2       -0.0342
     38 H           2.8792    3.1402   13.2610 H       2  LIG2        0.0639
     39 C           2.7324    3.8814   11.4105 C.ar    2  LIG2       -0.0505
     40 H           1.8605    3.5994   11.2498 H       2  LIG2        0.0625
     41 C           3.4411    4.5848   10.4223 C.ar    2  LIG2        0.0004
     42 C           2.9364    4.8331    9.1215 C.ar    2  LIG2       -0.0526
     43 H           2.0913    4.5229    8.8893 H       2  LIG2        0.0624
     44 C           3.6736    5.5169    8.2160 C.ar    2  LIG2       -0.0611
     45 H           3.3331    5.6620    7.3623 H       2  LIG2        0.0618
     46 C           4.9422    6.0089    8.5481 C.ar    2  LIG2       -0.0597
     47 H           5.4312    6.4875    7.9181 H       2  LIG2        0.0618
     48 C           5.4632    5.7898    9.7840 C.ar    2  LIG2       -0.0357
     49 H           6.3042    6.1243    9.9953 H       2  LIG2        0.0639
     50 C           4.7380    5.0583   10.7477 C.ar    2  LIG2        0.0717
     51 C           5.3859    3.6870   14.0344 C.2     2  LIG2        0.0536
     52 H           6.2314    4.0437   14.1882 H       2  LIG2        0.0851
     53 C           5.7022    2.3964   15.9305 C.ar    2  LIG2        0.0639
     54 C           6.9815    1.8986   15.7107 C.ar    2  LIG2       -0.0361
     55 H           7.3533    1.9368   14.8595 H       2  LIG2        0.0639
     56 C           7.7023    1.3492   16.7534 C.ar    2  LIG2       -0.0568
     57 H           8.5517    1.0091   16.5873 H       2  LIG2        0.0621
     58 C           7.1991    1.2903   18.0292 C.ar    2  LIG2       -0.0503
     59 C           5.9196    1.7990   18.2350 C.ar    2  LIG2       -0.0568
     60 H           5.5585    1.7831   19.0909 H       2  LIG2        0.0621
     61 C           5.1750    2.3247   17.2024 C.ar    2  LIG2       -0.0361
     62 H           4.3124    2.6323   17.3631 H       2  LIG2        0.0639
     63 C           7.9963    0.7041   19.1545 C.3     2  LIG2       -0.0397
     64 H           7.7638    1.1444   19.9740 H       2  LIG2        0.0278
     65 H           8.9326    0.8256   18.9808 H       2  LIG2        0.0278
     66 H           7.8037   -0.2333   19.2285 H       2  LIG2        0.0278
@<TRIPOS>BOND
     1    12    11    1
     2    14    13    1
     3    11    13   ar
     4    11     9   ar
     5    13    15   ar
     6    10     9    1
     7     9     8   ar
     8    15    16    1
     9    15    17   ar
    10     8    17   ar
    11     8     6   ar
    12    17     1   ar
    13     7     6    1
    14     6     4   ar
    15     1     3   ar
    16     4     3   ar
    17     4     5    1
    18     3    18    1
    19    18    19    1
    20    18     2    2
    21     2    20    1
    22    29    28    1
    23    28    20   ar
    24    28    26   ar
    25    20    21   ar
    26    27    26    1
    27    26    25   ar
    28    21    22    1
    29    21    23   ar
    30    25    23   ar
    31    25    30    1
    32    23    24    1
    33    32    30    1
    34    30    33    1
    35    30    31    1
    36    45    44    1
    37    47    46    1
    38    44    46   ar
    39    44    42   ar
    40    46    48   ar
    41    43    42    1
    42    42    41   ar
    43    48    49    1
    44    48    50   ar
    45    41    50   ar
    46    41    39   ar
    47    50    34   ar
    48    40    39    1
    49    39    37   ar
    50    34    36   ar
    51    37    36   ar
    52    37    38    1
    53    36    51    1
    54    51    52    1
    55    51    35    2
    56    55    54    1
    57    35    53    1
    58    54    53   ar
    59    54    56   ar
    60    53    61   ar
    61    57    56    1
    62    56    58   ar
    63    61    62    1
    64    61    59   ar
    65    58    59   ar
    66    58    63    1
    67    59    60    1
    68    65    63    1
    69    63    66    1
    70    63    64    1
