@<TRIPOS>MOLECULE
7042293.cif
 34 35 0 0 0
SMALL
GASTEIGER

@<TRIPOS>ATOM
      1 P           1.5351    2.2585    4.5397 P.3     1  LIG1        0.1889
      2 F           2.2165    2.2750    3.0138 F       1  LIG1       -0.1958
      3 F           0.9361    2.2208    6.1126 F       1  LIG1       -0.1958
      4 C           1.9994    0.5022    4.7265 C.3     1  LIG1        0.0605
      5 H           1.2412    0.0209    5.1415 H       1  LIG1        0.0422
      6 H           2.1389    0.1163    3.8250 H       1  LIG1        0.0422
      7 C          -0.1368    2.5449    3.8682 C.ar    1  LIG1        0.0274
      8 C          -1.1645    3.0196    4.6885 C.ar    1  LIG1       -0.0499
      9 H          -0.9779    3.2520    5.5906 H       1  LIG1        0.0625
     10 C          -2.4518    3.1557    4.1968 C.ar    1  LIG1       -0.0610
     11 H          -3.1412    3.4870    4.7600 H       1  LIG1        0.0618
     12 C          -2.7360    2.8114    2.8958 C.ar    1  LIG1       -0.0617
     13 H          -3.6250    2.8798    2.5691 H       1  LIG1        0.0618
     14 C          -1.7249    2.3671    2.0646 C.ar    1  LIG1       -0.0610
     15 H          -1.9193    2.1541    1.1592 H       1  LIG1        0.0618
     16 C          -0.4262    2.2285    2.5408 C.ar    1  LIG1       -0.0499
     17 H           0.2624    1.9168    1.9641 H       1  LIG1        0.0625
     18 C           2.5730    3.6842    5.0010 C.ar    1  LIG1        0.0274
     19 C           2.8353    4.6780    4.0577 C.ar    1  LIG1       -0.0499
     20 H           2.4797    4.5919    3.1807 H       1  LIG1        0.0625
     21 C           3.6006    5.7825    4.3741 C.ar    1  LIG1       -0.0610
     22 H           3.7601    6.4529    3.7200 H       1  LIG1        0.0618
     23 C           4.1366    5.9132    5.6435 C.ar    1  LIG1       -0.0617
     24 H           4.6674    6.6692    5.8626 H       1  LIG1        0.0618
     25 C           3.8943    4.9292    6.5972 C.ar    1  LIG1       -0.0610
     26 H           4.2778    5.0037    7.4626 H       1  LIG1        0.0618
     27 C           3.0951    3.8426    6.2866 C.ar    1  LIG1       -0.0499
     28 H           2.8998    3.1962    6.9561 H       1  LIG1        0.0625
     29 N           4.3580   -0.0000    4.8541 N.pl3   1  LIG1       -0.1338
     30 C           3.2371    0.2482    5.5520 C.2     1  LIG1        0.0550
     31 C           3.2066    0.2770    6.9438 C.2     1  LIG1       -0.0588
     32 H           2.4030    0.4862    7.4052 H       1  LIG1        0.0591
     33 C           4.3580   -0.0000    7.6385 C.3     1  LIG1       -0.0073
     34 H           4.3580   -0.0000    8.5883 H       1  LIG1        0.0355
@<TRIPOS>BOND
     1    15    14    1
     2    17    16    1
     3    14    16   ar
     4    14    12   ar
     5    16     7   ar
     6    13    12    1
     7    12    10   ar
     8     2     1    1
     9    20    19    1
    10    22    21    1
    11     6     4    1
    12     7     1    1
    13     7     8   ar
    14    19    21   ar
    15    19    18   ar
    16    10     8   ar
    17    10    11    1
    18    21    23   ar
    19     1     4    1
    20     1    18    1
    21     1     3    1
    22     8     9    1
    23     4     5    1
    24     4    30    1
    25    29    30    1
    26    18    27   ar
    27    30    31    2
    28    23    24    1
    29    23    25   ar
    30    27    25   ar
    31    27    28    1
    32    25    26    1
    33    31    32    1
    34    31    33    1
    35    33    34    1
