@<TRIPOS>MOLECULE
C16 H16 O4 P2 S4
 21 22 0 0 0
SMALL
GASTEIGER

@<TRIPOS>ATOM
      1 P           6.3205    1.0035    0.0302 P.3     1  LIG1        0.0693
      2 S           5.4854    1.6162    1.8591 S.3     1  LIG1       -0.0788
      3 S           8.1733    0.3880    0.8331 S.3     1  LIG1       -0.0788
      4 C           6.3885    0.4877    2.8952 C.ar    1  LIG1        0.0308
      5 C           5.9329    0.1940    4.1856 C.ar    1  LIG1       -0.0015
      6 H           5.1044    0.5452    4.4889 H       1  LIG1        0.0667
      7 C           6.6886   -0.6054    5.0154 C.ar    1  LIG1        0.1626
      8 C           7.9073   -1.1505    4.5587 C.ar    1  LIG1        0.1626
      9 C           8.3458   -0.8685    3.2794 C.ar    1  LIG1       -0.0015
     10 H           9.1646   -1.2350    2.9650 H       1  LIG1        0.0667
     11 C           7.5880   -0.0476    2.4514 C.ar    1  LIG1        0.0308
     12 C           5.0163   -0.6359    6.6984 C.3     1  LIG1        0.0790
     13 H           4.8802    0.3341    6.6928 H       1  LIG1        0.0660
     14 H           4.8674   -0.9817    7.6027 H       1  LIG1        0.0660
     15 H           4.3836   -1.0580    6.0798 H       1  LIG1        0.0660
     16 C           9.7603   -2.5786    4.9996 C.3     1  LIG1        0.0790
     17 H           9.5867   -3.0941    4.1837 H       1  LIG1        0.0660
     18 H          10.0966   -3.1768    5.6983 H       1  LIG1        0.0660
     19 H          10.4294   -1.8870    4.8117 H       1  LIG1        0.0660
     20 O           6.3466   -0.9305    6.2909 O.3     1  LIG1       -0.4914
     21 O           8.5477   -1.9607    5.4415 O.3     1  LIG1       -0.4914
@<TRIPOS>BOND
     1     1     3    1
     2     1     2    1
     3     3    11    1
     4     2     4    1
     5    11     4   ar
     6    11     9   ar
     7     4     5   ar
     8    10     9    1
     9     9     8   ar
    10    17    16    1
    11     5     6    1
    12     5     7   ar
    13     8     7   ar
    14     8    21    1
    15    19    16    1
    16    16    21    1
    17    16    18    1
    18     7    20    1
    19    15    12    1
    20    20    12    1
    21    13    12    1
    22    12    14    1
