@<TRIPOS>MOLECULE
C19 H22 N O P
 44 46 0 0 0
SMALL
GASTEIGER

@<TRIPOS>ATOM
      1 H          -0.3626   12.8036    3.3574 H       1  LIG1        0.1493
      2 C           0.3818   13.2022    5.1101 C.2     1  LIG1        0.2433
      3 N          -0.4149   12.5521    4.2632 N.am    1  LIG1       -0.3084
      4 O           0.4746   12.9102    6.2919 O.2     1  LIG1       -0.2700
      5 P           1.3069   14.6580    4.3326 P.3     1  LIG1        0.0468
      6 C          -1.1763   11.3680    4.6615 C.3     1  LIG1        0.0234
      7 H          -1.5828   11.5401    5.5590 H       1  LIG1        0.0498
      8 C          -0.2666   10.1449    4.7697 C.3     1  LIG1       -0.0345
      9 H           0.4325   10.3102    5.4500 H       1  LIG1        0.0283
     10 H           0.1802    9.9860    3.9004 H       1  LIG1        0.0283
     11 C          -1.0835    8.9070    5.1614 C.3     1  LIG1       -0.0514
     12 H          -0.4893    8.1162    5.1949 H       1  LIG1        0.0266
     13 H          -1.4705    9.0388    6.0630 H       1  LIG1        0.0266
     14 C          -2.2033    8.6575    4.1608 C.3     1  LIG1       -0.0529
     15 H          -1.8148    8.4498    3.2744 H       1  LIG1        0.0265
     16 H          -2.7391    7.8772    4.4518 H       1  LIG1        0.0265
     17 C          -3.1013    9.8735    4.0470 C.3     1  LIG1       -0.0514
     18 H          -3.5578   10.0277    4.9124 H       1  LIG1        0.0266
     19 H          -3.7952    9.7076    3.3607 H       1  LIG1        0.0266
     20 C          -2.2972   11.1199    3.6676 C.3     1  LIG1       -0.0345
     21 H          -1.9141   11.0014    2.7620 H       1  LIG1        0.0283
     22 H          -2.8982   11.9062    3.6452 H       1  LIG1        0.0283
     23 C           2.2460   15.2071    5.8044 C.ar    1  LIG1       -0.0104
     24 C           1.5048   15.7287    6.8600 C.ar    1  LIG1       -0.0534
     25 H           0.5569   15.7621    6.7980 H       1  LIG1        0.0624
     26 C           2.1351   16.2002    8.0010 C.ar    1  LIG1       -0.0611
     27 H           1.6187   16.5305    8.7275 H       1  LIG1        0.0618
     28 C           3.5151   16.1893    8.0816 C.ar    1  LIG1       -0.0617
     29 H           3.9524   16.5187    8.8575 H       1  LIG1        0.0618
     30 C           4.2542   15.6941    7.0193 C.ar    1  LIG1       -0.0611
     31 H           5.2026   15.6930    7.0667 H       1  LIG1        0.0618
     32 C           3.6260   15.2030    5.8954 C.ar    1  LIG1       -0.0534
     33 H           4.1455   14.8589    5.1783 H       1  LIG1        0.0624
     34 C           2.5489   13.7238    3.3565 C.ar    1  LIG1       -0.0104
     35 C           3.2165   12.6052    3.8535 C.ar    1  LIG1       -0.0534
     36 H           3.0177   12.2831    4.7243 H       1  LIG1        0.0624
     37 C           4.1699   11.9623    3.0805 C.ar    1  LIG1       -0.0611
     38 H           4.6281   11.2046    3.4250 H       1  LIG1        0.0618
     39 C           4.4558   12.4263    1.8020 C.ar    1  LIG1       -0.0617
     40 H           5.1149   11.9888    1.2762 H       1  LIG1        0.0618
     41 C           3.7860   13.5179    1.2956 C.ar    1  LIG1       -0.0611
     42 H           3.9797   13.8284    0.4184 H       1  LIG1        0.0618
     43 C           2.8251   14.1669    2.0685 C.ar    1  LIG1       -0.0534
     44 H           2.3586   14.9145    1.7143 H       1  LIG1        0.0624
@<TRIPOS>BOND
     1    42    41    1
     2    40    39    1
     3    41    39   ar
     4    41    43   ar
     5    44    43    1
     6    39    37   ar
     7    43    34   ar
     8    21    20    1
     9    37    38    1
    10    37    35   ar
    11    15    14    1
    12    34    35   ar
    13    34     5    1
    14     1     3    1
    15    19    17    1
    16    22    20    1
    17    20    17    1
    18    20     6    1
    19    35    36    1
    20    10     8    1
    21    17    14    1
    22    17    18    1
    23    14    16    1
    24    14    11    1
    25     3     6    1
    26     3     2   am
    27     5     2    1
    28     5    23    1
    29     6     8    1
    30     6     7    1
    31     8    11    1
    32     8     9    1
    33     2     4    2
    34    11    12    1
    35    11    13    1
    36    33    32    1
    37    23    32   ar
    38    23    24   ar
    39    32    30   ar
    40    25    24    1
    41    24    26   ar
    42    30    31    1
    43    30    28   ar
    44    26    28   ar
    45    26    27    1
    46    28    29    1
