@<TRIPOS>MOLECULE
?
 41 40 0 0 0
SMALL
GASTEIGER

@<TRIPOS>ATOM
      1 CL          3.7007    6.7616    4.9108 Cl      1  LIG1        0.0000
      2 O           3.0974    5.1328    2.2564 O.3     2  HOH2       -0.4105
      3 H           3.2252    5.6297    2.9341 H       0  HOH0        0.2052
      4 H           2.2978    4.8431    2.2641 H       0  HOH0        0.2052
      5 O           5.5930    9.3984    4.9982 O.3     3  HOH3       -0.4105
      6 CL          6.6522    4.5857   11.5470 Cl      4  LIG4       -0.0583
      7 N           7.2036    6.6023   13.0638 N.ar    4  LIG4       -0.2303
      8 N           7.9420    8.2890   10.9491 N.ar    4  LIG4       -0.2271
      9 N           7.6609    6.5887    9.3944 N.pl3   4  LIG4       -0.2802
     10 N           7.7616    5.3859    5.4383 N.pl3   4  LIG4       -0.3362
     11 C           7.9161    8.7545   12.2331 C.ar    4  LIG4        0.0914
     12 C           8.3116    4.9996    7.7512 C.2     4  LIG4       -0.0268
     13 H           8.7106    4.1856    7.5439 H       4  LIG4        0.0648
     14 C           7.5709    7.8987   13.3092 C.ar    4  LIG4        0.0910
     15 C           7.7535    5.7962    6.7057 C.2     4  LIG4        0.0283
     16 C           7.2231    6.1963   11.8338 C.ar    4  LIG4        0.1700
     17 C           8.2685    5.4133    9.0407 C.2     4  LIG4        0.0006
     18 H           8.6605    4.8874    9.7003 H       4  LIG4        0.0785
     19 C           7.6319    7.0405   10.7502 C.ar    4  LIG4        0.1635
     20 C           7.1815    7.0398    7.1063 C.2     4  LIG4       -0.0403
     21 H           6.8297    7.6125    6.4643 H       4  LIG4        0.0610
     22 C           8.2499   10.1000   12.4960 C.ar    4  LIG4       -0.0342
     23 H           8.4640   10.6735   11.7959 H       4  LIG4        0.0639
     24 C           7.1456    7.3951    8.4140 C.3     4  LIG4        0.0719
     25 H           6.7601    8.2074    8.6519 H       4  LIG4        0.0570
     26 C           7.5869    8.3920   14.6353 C.ar    4  LIG4       -0.0342
     27 H           7.3644    7.8365   15.3469 H       4  LIG4        0.0639
     28 C           8.3646    4.1132    5.0451 C.3     4  LIG4        0.0004
     29 H           9.3152    4.2219    4.9636 H       4  LIG4        0.0428
     30 H           8.0003    3.8339    4.2015 H       4  LIG4        0.0428
     31 H           8.1744    3.4496    5.7113 H       4  LIG4        0.0428
     32 C           8.2578   10.5566   13.7868 C.ar    4  LIG4       -0.0596
     33 H           8.4801   11.4426   13.9602 H       4  LIG4        0.0618
     34 C           7.9326    9.6965   14.8588 C.ar    4  LIG4       -0.0596
     35 H           7.9542   10.0221   15.7292 H       4  LIG4        0.0618
     36 C           7.3312    6.2401    4.3298 C.3     4  LIG4        0.0004
     37 H           6.4875    5.9277    3.9929 H       4  LIG4        0.0428
     38 H           7.9864    6.2099    3.6287 H       4  LIG4        0.0428
     39 H           7.2361    7.1436    4.6396 H       4  LIG4        0.0428
     40 H           5.0138    8.7416    5.0413 H       0  HOH0        0.2052
     41 H           5.5837    9.7053    5.8189 H       0  HOH0        0.2052
@<TRIPOS>BOND
     1     2     4    1
     2     2     3    1
     3    38    36    1
     4    37    36    1
     5    30    28    1
     6    36    39    1
     7    36    10    1
     8    29    28    1
     9     5    40    1
    10     5    41    1
    11    28    10    1
    12    28    31    1
    13    10    15    1
    14    21    20    1
    15    15    20    2
    16    15    12    1
    17    20    24    1
    18    13    12    1
    19    12    17    2
    20    24    25    1
    21    24     9    1
    22    17     9    1
    23    17    18    1
    24     9    19    1
    25    19     8   ar
    26    19    16   ar
    27     8    11   ar
    28     6    16    1
    29    23    22    1
    30    16     7   ar
    31    11    22   ar
    32    11    14   ar
    33    22    32   ar
    34     7    14   ar
    35    14    26   ar
    36    32    33    1
    37    32    34   ar
    38    26    34   ar
    39    26    27    1
    40    34    35    1
