@<TRIPOS>MOLECULE
YK_PPh_I
 53 55 0 0 0
SMALL
GASTEIGER

@<TRIPOS>ATOM
      1 P           3.8281    4.1060    2.7622 P.3     1  LIG1        0.1459
      2 C           4.1964    5.8745    2.5891 C.2     1  LIG1        0.1191
      3 C           3.1245    6.5455    3.0318 C.2     1  LIG1       -0.0069
      4 H           3.1121    7.4950    3.0605 H       1  LIG1        0.0664
      5 C           1.9638    5.7455    3.4721 C.ar    1  LIG1        0.0219
      6 C           2.1723    4.3650    3.4039 C.ar    1  LIG1        0.1185
      7 C           1.2005    3.4570    3.7616 C.ar    1  LIG1       -0.0178
      8 H           1.3554    2.5201    3.7078 H       1  LIG1        0.0657
      9 C          -0.0271    3.9686    4.2103 C.ar    1  LIG1       -0.0580
     10 H          -0.7153    3.3706    4.4771 H       1  LIG1        0.0619
     11 C          -0.2467    5.3265    4.2689 C.ar    1  LIG1       -0.0610
     12 H          -1.0870    5.6507    4.5692 H       1  LIG1        0.0618
     13 C           0.7452    6.2318    3.8956 C.ar    1  LIG1       -0.0507
     14 H           0.5839    7.1666    3.9315 H       1  LIG1        0.0625
     15 C           5.4352    6.4661    2.0555 C.ar    1  LIG1        0.0182
     16 C           6.5702    5.6865    1.7659 C.ar    1  LIG1       -0.0508
     17 H           6.5413    4.7454    1.8964 H       1  LIG1        0.0625
     18 C           7.7338    6.2823    1.2922 C.ar    1  LIG1       -0.0611
     19 H           8.4950    5.7455    1.1067 H       1  LIG1        0.0618
     20 C           7.7906    7.6382    1.0900 C.ar    1  LIG1       -0.0617
     21 H           8.5892    8.0403    0.7681 H       1  LIG1        0.0618
     22 C           6.6811    8.4129    1.3580 C.ar    1  LIG1       -0.0611
     23 H           6.7170    9.3498    1.2048 H       1  LIG1        0.0618
     24 C           5.5133    7.8466    1.8473 C.ar    1  LIG1       -0.0508
     25 H           4.7650    8.3982    2.0423 H       1  LIG1        0.0625
     26 C           4.9052    3.3172    3.9566 C.ar    1  LIG1        0.1113
     27 C           4.8283    1.9516    4.1505 C.ar    1  LIG1       -0.0184
     28 H           4.2621    1.4190    3.6025 H       1  LIG1        0.0657
     29 C           5.5873    1.3643    5.1507 C.ar    1  LIG1       -0.0580
     30 H           5.5337    0.4253    5.2919 H       1  LIG1        0.0619
     31 C           6.4182    2.1285    5.9451 C.ar    1  LIG1       -0.0615
     32 H           6.9299    1.7180    6.6331 H       1  LIG1        0.0618
     33 C           6.5044    3.4907    5.7345 C.ar    1  LIG1       -0.0580
     34 H           7.0873    4.0149    6.2717 H       1  LIG1        0.0619
     35 C           5.7489    4.0991    4.7511 C.ar    1  LIG1       -0.0184
     36 H           5.8021    5.0381    4.6147 H       1  LIG1        0.0657
     37 C           3.7674    3.1744    1.2323 C.ar    1  LIG1        0.1113
     38 C           2.5930    3.2024    0.4774 C.ar    1  LIG1       -0.0184
     39 H           1.8454    3.7117    0.7693 H       1  LIG1        0.0657
     40 C           2.5316    2.4801   -0.7023 C.ar    1  LIG1       -0.0580
     41 H           1.7389    2.4969   -1.2264 H       1  LIG1        0.0619
     42 C           3.6184    1.7369   -1.1223 C.ar    1  LIG1       -0.0615
     43 H           3.5722    1.2506   -1.9370 H       1  LIG1        0.0618
     44 C           4.7773    1.6969   -0.3601 C.ar    1  LIG1       -0.0580
     45 H           5.5157    1.1748   -0.6485 H       1  LIG1        0.0619
     46 C           4.8617    2.4165    0.8172 C.ar    1  LIG1       -0.0184
     47 H           5.6567    2.3938    1.3376 H       1  LIG1        0.0657
     48 I           6.5176   10.7778    8.5615 I       2  LIG2        0.0000
     49 C           3.4139    9.1814    7.0195 C.3     2  LIG2        0.0970
     50 H           3.0274    9.8088    6.3579 H       2  LIG2        0.0597
     51 H           4.3604    9.4361    7.1655 H       2  LIG2        0.0597
     52 CL          2.5260    9.3144    8.5459 Cl      2  LIG2       -0.1083
     53 CL          3.3383    7.5333    6.3838 Cl      2  LIG2       -0.1083
@<TRIPOS>BOND
     1    43    42    1
     2    41    40    1
     3    42    40   ar
     4    42    44   ar
     5    40    38   ar
     6    45    44    1
     7    44    46   ar
     8    38    39    1
     9    38    37   ar
    10    21    20    1
    11    46    37   ar
    12    46    47    1
    13    20    18   ar
    14    20    22   ar
    15    19    18    1
    16    23    22    1
    17    37     1    1
    18    18    16   ar
    19    22    24   ar
    20    16    17    1
    21    16    15   ar
    22    24    25    1
    23    24    15   ar
    24    15     2    1
    25     2     1    1
    26     2     3    2
    27     1     6    1
    28     1    26    1
    29     3     4    1
    30     3     5    1
    31     6     5   ar
    32     6     7   ar
    33     5    13   ar
    34    28    27    1
    35     8     7    1
    36     7     9   ar
    37    13    14    1
    38    13    11   ar
    39    26    27   ar
    40    26    35   ar
    41    27    29   ar
    42     9    11   ar
    43     9    10    1
    44    11    12    1
    45    36    35    1
    46    35    33   ar
    47    29    30    1
    48    29    31   ar
    49    33    31   ar
    50    33    34    1
    51    31    32    1
    52    50    49    1
    53    53    49    1
    54    49    51    1
    55    49    52    1
