@<TRIPOS>MOLECULE
C33 H41 N2, Br
 77 79 0 0 0
SMALL
GASTEIGER

@<TRIPOS>ATOM
      1 BR         11.1505    1.3015    8.7467 Br      1  LIG1        0.0000
      2 N          10.6423    4.0280   12.5430 N.pl3   2  LIG2       -0.2755
      3 N           9.7620    2.4977   13.8034 N.pl3   2  LIG2       -0.2755
      4 C           9.9769    3.8198   13.6914 C.3     2  LIG2        0.1795
      5 C          10.8412    2.8142   11.9105 C.2     2  LIG2        0.0133
      6 H          11.2737    2.6799   11.0981 H       2  LIG2        0.0797
      7 C          10.2907    1.8610   12.6917 C.2     2  LIG2        0.0133
      8 H          10.2701    0.9478   12.5167 H       2  LIG2        0.0797
      9 C          11.2496    5.3002   12.1767 C.ar    2  LIG2        0.0426
     10 C          12.4330    5.6566   12.8361 C.ar    2  LIG2       -0.0231
     11 C          12.9928    6.8910   12.5110 C.ar    2  LIG2       -0.0565
     12 H          13.7729    7.1698   12.9339 H       2  LIG2        0.0621
     13 C          12.3971    7.7046   11.5636 C.ar    2  LIG2       -0.0611
     14 H          12.7772    8.5297   11.3648 H       2  LIG2        0.0618
     15 C          11.2507    7.3121   10.9109 C.ar    2  LIG2       -0.0565
     16 H          10.8786    7.8691   10.2658 H       2  LIG2        0.0621
     17 C          10.6379    6.0930   11.2007 C.ar    2  LIG2       -0.0231
     18 C          13.1446    4.7271   13.8018 C.3     2  LIG2       -0.0197
     19 H          12.5053    4.0455   14.0968 H       2  LIG2        0.0344
     20 C          13.6662    5.4542   15.0351 C.3     2  LIG2       -0.0586
     21 H          14.3484    6.0776   14.7745 H       2  LIG2        0.0235
     22 H          14.0340    4.8166   15.6512 H       2  LIG2        0.0235
     23 H          12.9450    5.9274   15.4567 H       2  LIG2        0.0235
     24 C          14.2876    4.0257   13.0833 C.3     2  LIG2       -0.0586
     25 H          13.9469    3.5672   12.3116 H       2  LIG2        0.0235
     26 H          14.6979    3.3923   13.6765 H       2  LIG2        0.0235
     27 H          14.9389    4.6749   12.8079 H       2  LIG2        0.0235
     28 C           9.4062    5.6670   10.4192 C.3     2  LIG2       -0.0197
     29 H           9.0037    4.8986   10.8754 H       2  LIG2        0.0344
     30 C           8.3647    6.7806   10.3489 C.3     2  LIG2       -0.0586
     31 H           8.1418    7.0665   11.2378 H       2  LIG2        0.0235
     32 H           7.5756    6.4530    9.9109 H       2  LIG2        0.0235
     33 H           8.7214    7.5214    9.8540 H       2  LIG2        0.0235
     34 C           9.8090    5.2294    9.0057 C.3     2  LIG2       -0.0586
     35 H          10.2838    5.9431    8.5731 H       2  LIG2        0.0235
     36 H           9.0215    5.0162    8.5000 H       2  LIG2        0.0235
     37 H          10.3744    4.4555    9.0594 H       2  LIG2        0.0235
     38 C           8.9574    1.9114   14.8645 C.ar    2  LIG2        0.0426
     39 C           7.5708    1.9282   14.6954 C.ar    2  LIG2       -0.0231
     40 C           6.8037    1.4921   15.7742 C.ar    2  LIG2       -0.0565
     41 H           5.8763    1.4848   15.7045 H       2  LIG2        0.0621
     42 C           7.4008    1.0729   16.9428 C.ar    2  LIG2       -0.0611
     43 H           6.8692    0.8210   17.6631 H       2  LIG2        0.0618
     44 C           8.7720    1.0192   17.0619 C.ar    2  LIG2       -0.0565
     45 H           9.1532    0.7021   17.8486 H       2  LIG2        0.0621
     46 C           9.5958    1.4357   16.0142 C.ar    2  LIG2       -0.0231
     47 C           6.9055    2.3274   13.3945 C.3     2  LIG2       -0.0197
     48 H           7.5804    2.7738   12.8416 H       2  LIG2        0.0344
     49 C           5.7608    3.2958   13.5891 C.3     2  LIG2       -0.0586
     50 H           5.0454    2.8565   14.0544 H       2  LIG2        0.0235
     51 H           5.4481    3.5978   12.7331 H       2  LIG2        0.0235
     52 H           6.0624    4.0486   14.1031 H       2  LIG2        0.0235
     53 C           6.4791    1.0568   12.6648 C.3     2  LIG2       -0.0586
     54 H           7.2544    0.5269   12.4648 H       2  LIG2        0.0235
     55 H           6.0322    1.2908   11.8482 H       2  LIG2        0.0235
     56 H           5.8824    0.5521   13.2228 H       2  LIG2        0.0235
     57 C          11.1075    1.3232   16.1298 C.3     2  LIG2       -0.0197
     58 H          11.5096    1.9601   15.5029 H       2  LIG2        0.0344
     59 C          11.5558   -0.0815   15.7332 C.3     2  LIG2       -0.0586
     60 H          11.2056   -0.7183   16.3604 H       2  LIG2        0.0235
     61 H          12.5150   -0.1240   15.7360 H       2  LIG2        0.0235
     62 H          11.2291   -0.2854   14.8539 H       2  LIG2        0.0235
     63 C          11.6002    1.6658   17.5379 C.3     2  LIG2       -0.0586
     64 H          11.2115    2.4968   17.8197 H       2  LIG2        0.0235
     65 H          12.5568    1.7452   17.5317 H       2  LIG2        0.0235
     66 H          11.3411    0.9689   18.1457 H       2  LIG2        0.0235
     67 C           9.5252    4.8336   14.6497 C.ar    2  LIG2       -0.0013
     68 C           9.9581    4.7791   15.9647 C.ar    2  LIG2       -0.0548
     69 H          10.5693    4.1275   16.2233 H       2  LIG2        0.0622
     70 C           9.4874    5.6871   16.8957 C.ar    2  LIG2       -0.0614
     71 H           9.7853    5.6517   17.7760 H       2  LIG2        0.0618
     72 C           8.5820    6.6373   16.5149 C.ar    2  LIG2       -0.0617
     73 H           8.2467    7.2334   17.1446 H       2  LIG2        0.0618
     74 C           8.1610    6.7179   15.2032 C.ar    2  LIG2       -0.0614
     75 H           7.5587    7.3798   14.9503 H       2  LIG2        0.0618
     76 C           8.6347    5.8130   14.2572 C.ar    2  LIG2       -0.0548
     77 H           8.3545    5.8674   13.3721 H       2  LIG2        0.0622
@<TRIPOS>BOND
     1    36    34    1
     2    35    34    1
     3    34    37    1
     4    34    28    1
     5    33    30    1
     6    32    30    1
     7    16    15    1
     8    30    28    1
     9    30    31    1
    10    28    29    1
    11    28    17    1
    12    15    17   ar
    13    15    13   ar
    14     6     5    1
    15    17     9   ar
    16    14    13    1
    17    13    11   ar
    18    55    53    1
    19     5     2    1
    20     5     7    2
    21     9     2    1
    22     9    10   ar
    23    25    24    1
    24    54    53    1
    25    11    10   ar
    26    11    12    1
    27     8     7    1
    28     2     4    1
    29    53    56    1
    30    53    47    1
    31     7     3    1
    32    51    49    1
    33    27    24    1
    34    10    18    1
    35    48    47    1
    36    24    26    1
    37    24    18    1
    38    77    76    1
    39    47    49    1
    40    47    39    1
    41    49    50    1
    42    49    52    1
    43     4     3    1
    44     4    67    1
    45    18    19    1
    46    18    20    1
    47     3    38    1
    48    76    67   ar
    49    76    74   ar
    50    67    68   ar
    51    39    38   ar
    52    39    40   ar
    53    21    20    1
    54    62    59    1
    55    38    46   ar
    56    75    74    1
    57    20    23    1
    58    20    22    1
    59    74    72   ar
    60    58    57    1
    61    41    40    1
    62    59    61    1
    63    59    57    1
    64    59    60    1
    65    40    42   ar
    66    68    69    1
    67    68    70   ar
    68    46    57    1
    69    46    44   ar
    70    57    63    1
    71    72    70   ar
    72    72    73    1
    73    70    71    1
    74    42    44   ar
    75    42    43    1
    76    44    45    1
    77    65    63    1
    78    63    64    1
    79    63    66    1
