@<TRIPOS>MOLECULE
7045804.cif
 106 144 0 0 0
SMALL
GASTEIGER

@<TRIPOS>ATOM
      1 CL          3.4631    8.4182    9.0997 Cl      1  LIG1       -0.1027
      2 CL          6.2254    6.4143    9.3024 Cl      1  LIG1       -0.1056
      3 CL          8.8233    5.8884    7.7675 Cl      1  LIG1       -0.1083
      4 CL          7.5755    3.0875    8.3163 Cl      1  LIG1       -0.1089
      5 CL          0.6392    6.1157    9.3736 Cl      1  LIG1       -0.1062
      6 CL          9.7174    2.8707    6.0034 Cl      1  LIG1       -0.1127
      7 CL          7.4802    0.5184    5.8556 Cl      1  LIG1       -0.1092
      8 CL          1.7799    0.3916    5.2723 Cl      1  LIG1       -0.1085
      9 CL         -0.7687    2.2345    5.0173 Cl      1  LIG1       -0.1086
     10 CL          0.6088    2.3844    7.8426 Cl      1  LIG1       -0.1088
     11 CL         -1.4582    4.5652    7.7304 Cl      1  LIG1       -0.1111
     12 CL         -1.9736    5.5237    4.8700 Cl      1  LIG1       -0.1088
     13 CL         -1.5690    7.7955    7.0729 Cl      1  LIG1       -0.1088
     14 CL         -1.5875    8.8568    4.1775 Cl      1  LIG1       -0.1086
     15 CL         -0.0104   10.7936    6.2510 Cl      1  LIG1       -0.1086
     16 CL          0.5178   11.3103    3.0202 Cl      1  LIG1       -0.1085
     17 CL          2.8941   12.2328    5.0752 Cl      1  LIG1       -0.1085
     18 CL          3.7894   12.1147    2.1763 Cl      1  LIG1       -0.1085
     19 CL          6.3258   11.6252    4.2013 Cl      1  LIG1       -0.1085
     20 CL          6.6291   11.1397    1.1447 Cl      1  LIG1       -0.1086
     21 CL          8.7898    9.1424    1.8306 Cl      1  LIG1       -0.1085
     22 CL          9.7769    6.0742    1.5481 Cl      1  LIG1       -0.1086
     23 CL          8.9706    3.2239    0.7669 Cl      1  LIG1       -0.1101
     24 CL          8.7916    0.9031    3.1305 Cl      1  LIG1       -0.1130
     25 CL          6.4275    0.4490    1.4265 Cl      1  LIG1       -0.1089
     26 CL          4.6235   -0.4203    3.7911 Cl      1  LIG1       -0.1086
     27 CL          3.3024    0.7817    1.1442 Cl      1  LIG1       -0.1085
     28 CL          0.7838    1.4808    2.3871 Cl      1  LIG1       -0.1085
     29 CL          6.9673    8.5291   -0.7126 Cl      1  LIG1       -0.1085
     30 CL          7.6173    5.6812   -0.8683 Cl      1  LIG1       -0.1085
     31 C           4.7087    5.3735    7.3825 C.ar    1  LIG1       -0.0064
     32 C           3.5366    6.0786    7.5554 C.ar    1  LIG1       -0.0066
     33 C           3.4514    7.6024    7.4572 C.3     1  LIG1        0.1217
     34 C           4.6528    8.0593    6.6203 C.ar    1  LIG1       -0.0044
     35 C           5.8129    7.3519    6.7099 C.ar    1  LIG1       -0.0062
     36 C           6.0288    6.1029    7.5553 C.3     1  LIG1        0.1216
     37 C           7.3224    5.4180    6.9035 C.3     1  LIG1        0.1226
     38 C           7.2218    3.8834    6.7590 C.3     1  LIG1        0.1179
     39 C           5.8453    3.4932    6.3291 C.ar    1  LIG1       -0.0095
     40 C           4.6725    4.0991    6.7675 C.ar    1  LIG1       -0.0064
     41 C           3.4455    3.5202    6.3340 C.ar    1  LIG1       -0.0066
     42 C           2.2909    4.1207    6.8336 C.ar    1  LIG1       -0.0092
     43 C           2.3422    5.3408    7.4404 C.ar    1  LIG1       -0.0094
     44 C           0.9978    5.9194    7.6213 C.3     1  LIG1        0.1169
     45 C           1.0146    7.2219    6.8925 C.2     1  LIG1       -0.0124
     46 C           2.1274    7.9903    6.8066 C.2     1  LIG1       -0.0096
     47 C           2.1236    9.1304    5.9349 C.2     1  LIG1       -0.0115
     48 C           3.2537    9.6256    5.3685 C.2     1  LIG1       -0.0095
     49 C           4.5331    9.0132    5.5509 C.ar    1  LIG1       -0.0083
     50 C           5.5106    9.1240    4.5353 C.ar    1  LIG1       -0.0067
     51 C           6.5071    8.1160    4.4529 C.ar    1  LIG1       -0.0064
     52 C           6.6769    7.3105    5.5937 C.ar    1  LIG1       -0.0064
     53 C           7.3989    6.1191    5.5742 C.ar    1  LIG1       -0.0101
     54 C           7.8393    5.5842    4.3895 C.ar    1  LIG1       -0.0269
     55 C           8.0520    4.1532    4.3507 C.3     1  LIG1        0.0414
     56 C           8.0508    3.2689    5.5824 C.3     1  LIG1        0.1059
     57 C           7.2016    2.0602    5.0288 C.3     1  LIG1        0.1139
     58 C           5.8197    2.5217    5.3624 C.ar    1  LIG1       -0.0123
     59 C           4.6157    2.1060    4.7534 C.ar    1  LIG1       -0.0118
     60 C           3.4125    2.5307    5.3167 C.ar    1  LIG1       -0.0092
     61 C           2.0547    2.0715    4.7706 C.3     1  LIG1        0.1208
     62 C           0.8258    3.0266    5.1862 C.3     1  LIG1        0.1203
     63 C           0.9042    3.6396    6.5964 C.3     1  LIG1        0.1190
     64 C           0.0054    4.9501    6.8388 C.3     1  LIG1        0.1219
     65 C          -0.3443    5.8187    5.5332 C.3     1  LIG1        0.1188
     66 C          -0.1940    7.3321    6.0154 C.3     1  LIG1        0.1184
     67 C          -0.0152    8.3575    4.8710 C.3     1  LIG1        0.1206
     68 C           0.8553    9.6120    5.2661 C.3     1  LIG1        0.1206
     69 C           1.4797   10.1335    3.9143 C.3     1  LIG1        0.1208
     70 C           2.9281   10.6245    4.2953 C.3     1  LIG1        0.1208
     71 C           3.9324   10.5942    3.1084 C.3     1  LIG1        0.1208
     72 C           5.4548   10.2430    3.4940 C.3     1  LIG1        0.1211
     73 C           6.0792    9.7448    2.1026 C.3     1  LIG1        0.1206
     74 C           7.1250    8.5400    2.0260 C.3     1  LIG1        0.1208
     75 C           7.1366    7.6406    3.2488 C.ar    1  LIG1       -0.0093
     76 C           7.6708    6.3566    3.1901 C.ar    1  LIG1       -0.0129
     77 C           8.0763    5.6873    1.8687 C.3     1  LIG1        0.1191
     78 C           7.8638    4.0932    1.8836 C.3     1  LIG1        0.1045
     79 C           7.9115    3.4416    3.2286 C.3     1  LIG1        0.0414
     80 C           7.4455    2.0163    3.4883 C.3     1  LIG1        0.1040
     81 C           6.0761    1.6944    2.6539 C.3     1  LIG1        0.1171
     82 C           4.7143    1.3198    3.4636 C.3     1  LIG1        0.1203
     83 C           3.5562    1.8970    2.5277 C.3     1  LIG1        0.1208
     84 C           2.1641    2.2861    3.2107 C.3     1  LIG1        0.1208
     85 C           1.8602    3.7751    3.1640 C.ar    1  LIG1       -0.0090
     86 C           1.0063    4.1469    4.2020 C.ar    1  LIG1       -0.0115
     87 C           0.6098    5.4614    4.3937 C.ar    1  LIG1       -0.0095
     88 C           1.1091    6.4488    3.5158 C.ar    1  LIG1       -0.0061
     89 C           0.8493    7.8184    3.7635 C.ar    1  LIG1       -0.0090
     90 C           1.5931    8.8013    3.2004 C.ar    1  LIG1       -0.0090
     91 C           2.6602    8.4957    2.3223 C.ar    1  LIG1       -0.0061
     92 C           3.6902    9.4242    2.1878 C.ar    1  LIG1       -0.0092
     93 C           4.8529    9.0585    1.5807 C.ar    1  LIG1       -0.0115
     94 C           5.0909    7.7940    1.0740 C.ar    1  LIG1       -0.0090
     95 C           6.5841    7.6580    0.8138 C.3     1  LIG1        0.1208
     96 C           7.0343    6.1508    0.7681 C.3     1  LIG1        0.1208
     97 C           5.9113    5.1650    1.0667 C.ar    1  LIG1       -0.0090
     98 C           6.4332    3.9782    1.4943 C.ar    1  LIG1       -0.0132
     99 C           5.6139    2.9368    1.9406 C.ar    1  LIG1       -0.0121
    100 C           4.2528    3.1196    1.9561 C.ar    1  LIG1       -0.0090
    101 C           3.7040    4.3884    1.6958 C.ar    1  LIG1       -0.0036
    102 C           2.4644    4.7439    2.3574 C.ar    1  LIG1       -0.0033
    103 C           2.1032    6.0992    2.5361 C.ar    1  LIG1       -0.0009
    104 C           2.9024    7.1405    1.9415 C.ar    1  LIG1       -0.0009
    105 C           4.1236    6.8047    1.2807 C.ar    1  LIG1       -0.0033
    106 C           4.5430    5.4212    1.2135 C.ar    1  LIG1       -0.0036
@<TRIPOS>BOND
     1    30    96    1
     2    29    95    1
     3    23    78    1
     4    96    95    1
     5    96    97    1
     6    96    77    1
     7    95    94    1
     8    95    74    1
     9    97   106   ar
    10    97    98   ar
    11    94   105   ar
    12    94    93   ar
    13    27    83    1
    14    20    73    1
    15   106   105   ar
    16   106   101   ar
    17   105   104   ar
    18    25    81    1
    19    98    78    1
    20    98    99   ar
    21    22    77    1
    22    93    73    1
    23    93    92   ar
    24   101   100   ar
    25   101   102   ar
    26    21    74    1
    27    77    78    1
    28    77    76    1
    29    78    79    1
    30    99   100   ar
    31    99    81    1
    32   104    91   ar
    33   104   103   ar
    34   100    83    1
    35    74    73    1
    36    74    75    1
    37    73    72    1
    38    18    71    1
    39    92    91   ar
    40    92    71    1
    41    91    90   ar
    42   102   103   ar
    43   102    85   ar
    44    28    84    1
    45    83    84    1
    46    83    82    1
    47   103    88   ar
    48    81    82    1
    49    81    80    1
    50    16    69    1
    51    71    72    1
    52    71    70    1
    53    24    80    1
    54    85    84    1
    55    85    86   ar
    56    76    75   ar
    57    76    54   ar
    58    90    89   ar
    59    90    69    1
    60    84    61    1
    61    79    80    1
    62    79    55    1
    63    75    51   ar
    64    82    26    1
    65    82    59    1
    66    80    57    1
    67    72    19    1
    68    72    50    1
    69    88    89   ar
    70    88    87   ar
    71    89    67    1
    72    69    70    1
    73    69    68    1
    74    14    67    1
    75    86    87   ar
    76    86    62    1
    77    70    17    1
    78    70    48    1
    79    55    54    1
    80    55    56    1
    81    54    53   ar
    82    87    65    1
    83    51    50   ar
    84    51    52   ar
    85    50    49   ar
    86    59    60   ar
    87    59    58   ar
    88    61    62    1
    89    61     8    1
    90    61    60    1
    91    12    65    1
    92    67    68    1
    93    67    66    1
    94     9    62    1
    95    57    58    1
    96    57    56    1
    97    57     7    1
    98    62    63    1
    99    68    47    1
   100    68    15    1
   101    60    41   ar
   102    58    39   ar
   103    48    49    1
   104    48    47    2
   105    65    66    1
   106    65    64    1
   107    49    34   ar
   108    53    52   ar
   109    53    37    1
   110    56     6    1
   111    56    38    1
   112    52    35   ar
   113    47    46    1
   114    66    45    1
   115    66    13    1
   116    39    38    1
   117    39    40   ar
   118    41    40   ar
   119    41    42   ar
   120    63    42    1
   121    63    64    1
   122    63    10    1
   123    34    35   ar
   124    34    33    1
   125    35    36    1
   126    38    37    1
   127    38     4    1
   128    40    31   ar
   129    46    45    2
   130    46    33    1
   131    42    43   ar
   132    64    44    1
   133    64    11    1
   134    45    44    1
   135    37    36    1
   136    37     3    1
   137    31    36    1
   138    31    32   ar
   139    43    32   ar
   140    43    44    1
   141    33    32    1
   142    33     1    1
   143    36     2    1
   144    44     5    1
