@<TRIPOS>MOLECULE
7045898.cif
 24 23 0 0 0
SMALL
GASTEIGER

@<TRIPOS>ATOM
      1 P           2.1077    3.3541    5.7861 P.3     1  LIG1        1.0000
      2 O           2.8809    4.6225    5.3474 O.3     1  LIG1        0.0000
      3 B           3.4341    5.6778    6.2599 B       1  LIG1        0.0000
      4 C           0.8207    3.7320    6.9540 C.3     1  LIG1        0.0000
      5 H           0.1787    4.3486    6.5440 H       1  LIG1        0.0000
      6 H           1.2137    4.1493    7.7489 H       1  LIG1        0.0000
      7 H           0.3612    2.9061    7.2122 H       1  LIG1        0.0000
      8 C           1.4922    2.5184    4.2978 C.3     1  LIG1        0.0000
      9 C           0.5993    3.4776    3.4924 C.3     1  LIG1        0.0000
     10 H          -0.1612    3.7562    4.0431 H       1  LIG1        0.0000
     11 H           0.2714    3.0206    2.6891 H       1  LIG1        0.0000
     12 H           1.1193    4.2660    3.2307 H       1  LIG1        0.0000
     13 C           0.7093    1.2675    4.7386 C.3     1  LIG1        0.0000
     14 H           0.4168    0.7686    3.9465 H       1  LIG1        0.0000
     15 H          -0.0731    1.5384    5.2613 H       1  LIG1        0.0000
     16 H           1.2879    0.6971    5.2872 H       1  LIG1        0.0000
     17 C           2.7334    2.0989    3.4805 C.3     1  LIG1        0.0000
     18 H           3.2500    2.8962    3.2391 H       1  LIG1        0.0000
     19 H           2.4476    1.6364    2.6653 H       1  LIG1        0.0000
     20 H           3.2909    1.4987    4.0179 H       1  LIG1        0.0000
     21 F           2.4910    6.6720    6.4134 F       1  LIG1        0.0000
     22 F           3.7170    5.0990    7.5002 F       1  LIG1        0.0000
     23 F           4.5851    6.1718    5.6791 F       1  LIG1        0.0000
     24 H           2.9787    2.5217    6.3606 H       1  LIG1        0.0000
@<TRIPOS>BOND
     1    19    17    1
     2    11     9    1
     3    12     9    1
     4    18    17    1
     5    17    20    1
     6    17     8    1
     7     9    10    1
     8     9     8    1
     9    14    13    1
    10     8    13    1
    11     8     1    1
    12    13    15    1
    13    13    16    1
    14     2     1    1
    15     2     3    1
    16    23     3    1
    17     1    24    1
    18     1     4    1
    19     3    21    1
    20     3    22    1
    21     5     4    1
    22     4     7    1
    23     4     6    1
