@<TRIPOS>MOLECULE
7047416.cif
 38 38 0 0 0
SMALL
GASTEIGER

@<TRIPOS>ATOM
      1 C           5.0649    7.5569   24.8613 C.2     1  LIG1        0.1390
      2 C           4.4360    8.2487   23.8595 C.2     1  LIG1        0.1711
      3 C           4.6337    9.6704   23.7485 C.1     1  LIG1        0.1217
      4 C           5.9046    8.2695   25.7930 C.1     1  LIG1        0.1171
      5 C           2.9580    8.2388   22.0557 C.2     1  LIG1        0.0398
      6 H           3.1504    9.1423   21.9494 H       1  LIG1        0.0837
      7 C           1.9974    7.6447   21.1870 C.ar    1  LIG1        0.0346
      8 C           1.6250    6.2758   21.2433 C.ar    1  LIG1        0.1272
      9 C           0.6492    5.7600   20.4102 C.ar    1  LIG1        0.0015
     10 H           0.4452    4.8538   20.4518 H       1  LIG1        0.0673
     11 C          -0.0416    6.5868   19.4989 C.ar    1  LIG1        0.0332
     12 C           0.3694    7.9474   19.4088 C.ar    1  LIG1       -0.0398
     13 H          -0.0282    8.5061   18.7818 H       1  LIG1        0.0636
     14 C           1.3385    8.4408   20.2307 C.ar    1  LIG1       -0.0479
     15 H           1.5736    9.3374   20.1566 H       1  LIG1        0.0626
     16 C          -1.7954    7.0155   17.8192 C.3     1  LIG1        0.0093
     17 H          -1.9288    7.8713   18.2560 H       1  LIG1        0.0461
     18 H          -2.6712    6.6383   17.6418 H       1  LIG1        0.0461
     19 C          -1.0923    7.2545   16.4888 C.3     1  LIG1       -0.0494
     20 H          -0.1907    7.5414   16.6506 H       1  LIG1        0.0245
     21 H          -1.5602    7.9330   15.9977 H       1  LIG1        0.0245
     22 H          -1.0833    6.4396   15.9805 H       1  LIG1        0.0245
     23 C          -1.5059    4.7299   18.7596 C.3     1  LIG1        0.0093
     24 H          -2.4591    4.6866   18.5878 H       1  LIG1        0.0461
     25 H          -1.3489    4.3653   19.6437 H       1  LIG1        0.0461
     26 C          -0.7847    3.8733   17.7416 C.3     1  LIG1       -0.0494
     27 H          -0.8966    4.2534   16.8661 H       1  LIG1        0.0245
     28 H          -1.1491    2.9860   17.7539 H       1  LIG1        0.0245
     29 H           0.1501    3.8381   17.9586 H       1  LIG1        0.0245
     30 N           3.5811    7.5776   22.9928 N.2     1  LIG1       -0.2415
     31 N           4.9164    6.2291   25.0865 N.pl3   1  LIG1       -0.3474
     32 H           4.3984    5.7625   24.5827 H       1  LIG1        0.1430
     33 H           5.3402    5.8529   25.7334 H       1  LIG1        0.1430
     34 N           4.7098   10.8068   23.6121 N.1     1  LIG1       -0.1892
     35 N           6.5533    8.8018   26.5692 N.1     1  LIG1       -0.1895
     36 N          -1.0848    6.1283   18.7421 N.pl3   1  LIG1       -0.3303
     37 O           2.2173    5.4276   22.1175 O.3     1  LIG1       -0.5061
     38 H           2.7364    5.8457   22.5937 H       1  LIG1        0.2922
@<TRIPOS>BOND
     1    22    19    1
     2    21    19    1
     3    19    20    1
     4    19    16    1
     5    27    26    1
     6    18    16    1
     7    26    28    1
     8    26    29    1
     9    26    23    1
    10    16    17    1
    11    16    36    1
    12    24    23    1
    13    36    23    1
    14    36    11    1
    15    23    25    1
    16    13    12    1
    17    12    11   ar
    18    12    14   ar
    19    11     9   ar
    20    15    14    1
    21    14     7   ar
    22     9    10    1
    23     9     8   ar
    24     7     8   ar
    25     7     5    1
    26     8    37    1
    27     6     5    1
    28     5    30    2
    29    37    38    1
    30    30     2    1
    31    34     3    3
    32     3     2    1
    33     2     1    2
    34    32    31    1
    35     1    31    1
    36     1     4    1
    37    31    33    1
    38     4    35    3
