@<TRIPOS>MOLECULE
;
 88 92 0 0 0
SMALL
GASTEIGER

@<TRIPOS>ATOM
      1 C           4.7436    5.3512   12.7238 C.ar    1  LIG1        0.0000
      2 C           4.2677    4.7077   13.8425 C.ar    1  LIG1        0.0000
      3 C           3.0342    5.1544   14.4650 C.ar    1  LIG1        0.0000
      4 C           2.5755    4.5849   15.6766 C.ar    1  LIG1        0.0000
      5 H           3.0592    3.8631   16.0611 H       1  LIG1        0.0000
      6 C           1.4597    5.0453   16.3065 C.ar    1  LIG1        0.0000
      7 H           1.1880    4.6432   17.1235 H       1  LIG1        0.0000
      8 C           0.6981    6.1027   15.7762 C.ar    1  LIG1        0.0000
      9 C           1.1148    6.6462   14.5817 C.ar    1  LIG1        0.0000
     10 H           0.5980    7.3415   14.1913 H       1  LIG1        0.0000
     11 C           2.2816    6.2103   13.9115 C.ar    1  LIG1        0.0000
     12 C           2.7579    6.8547   12.6974 C.ar    1  LIG1        0.0000
     13 C           2.0562    7.9042   12.0712 C.ar    1  LIG1        0.0000
     14 H           1.2323    8.1862   12.4512 H       1  LIG1        0.0000
     15 C           2.5041    8.5396   10.9375 C.ar    1  LIG1        0.0000
     16 C           3.7068    8.0923   10.3736 C.ar    1  LIG1        0.0000
     17 H           4.0324    8.4969    9.5785 H       1  LIG1        0.0000
     18 C           4.4204    7.0723   10.9596 C.ar    1  LIG1        0.0000
     19 H           5.2329    6.7900   10.5580 H       1  LIG1        0.0000
     20 C           3.9866    6.4364   12.1320 C.ar    1  LIG1        0.0000
     21 C          -0.5121    6.6316   16.5532 C.3     1  LIG1        0.0000
     22 C          -0.0489    7.0590   17.9535 C.3     1  LIG1        0.0000
     23 H          -0.8163    7.3913   18.4643 H       1  LIG1        0.0000
     24 H           0.6230    7.7679   17.8736 H       1  LIG1        0.0000
     25 H           0.3422    6.2883   18.4175 H       1  LIG1        0.0000
     26 C          -1.5541    5.5108   16.6924 C.3     1  LIG1        0.0000
     27 H          -1.8474    5.2257   15.8019 H       1  LIG1        0.0000
     28 H          -2.3237    5.8431   17.2000 H       1  LIG1        0.0000
     29 H          -1.1539    4.7509   17.1639 H       1  LIG1        0.0000
     30 C          -1.1755    7.8177   15.8739 C.3     1  LIG1        0.0000
     31 H          -1.4779    7.5554   14.9796 H       1  LIG1        0.0000
     32 H          -0.5320    8.5534   15.7977 H       1  LIG1        0.0000
     33 H          -1.9451    8.1109   16.4053 H       1  LIG1        0.0000
     34 C           1.7087    9.7140   10.3532 C.3     1  LIG1        0.0000
     35 C           1.6382   10.8251   11.4147 C.3     1  LIG1        0.0000
     36 H           1.1357   11.5866   11.0573 H       1  LIG1        0.0000
     37 H           2.5454   11.1131   11.6480 H       1  LIG1        0.0000
     38 H           1.1880   10.4836   12.2153 H       1  LIG1        0.0000
     39 C           0.2990    9.2484    9.9858 C.3     1  LIG1        0.0000
     40 H          -0.2069   10.0007    9.6146 H       1  LIG1        0.0000
     41 H          -0.1546    8.9139   10.7875 H       1  LIG1        0.0000
     42 H           0.3547    8.5319    9.3192 H       1  LIG1        0.0000
     43 C           2.3624   10.3007    9.0968 C.3     1  LIG1        0.0000
     44 H           1.8212   11.0472    8.7668 H       1  LIG1        0.0000
     45 H           2.4203    9.6080    8.4056 H       1  LIG1        0.0000
     46 H           3.2627   10.6195    9.3150 H       1  LIG1        0.0000
     47 B           6.1179    4.9229   12.0972 B       1  LIG1        0.0000
     48 O           7.0672    5.8012   11.6745 O.3     1  LIG1        0.0000
     49 C           8.2748    5.0228   11.4090 C.3     1  LIG1        0.0000
     50 C           7.6998    3.6241   11.1285 C.3     1  LIG1        0.0000
     51 O           6.4593    3.6214   11.9078 O.3     1  LIG1        0.0000
     52 C           9.0311    5.6480   10.2552 C.3     1  LIG1        0.0000
     53 H           8.4876    5.5929    9.4404 H       1  LIG1        0.0000
     54 H           9.8735    5.1665   10.1182 H       1  LIG1        0.0000
     55 H           9.2198    6.5869   10.4602 H       1  LIG1        0.0000
     56 C           9.0924    5.0817   12.6879 C.3     1  LIG1        0.0000
     57 H           9.4335    5.9910   12.8166 H       1  LIG1        0.0000
     58 H           9.8439    4.4563   12.6233 H       1  LIG1        0.0000
     59 H           8.5263    4.8356   13.4498 H       1  LIG1        0.0000
     60 C           8.5684    2.4682   11.5772 C.3     1  LIG1        0.0000
     61 H           8.1239    1.6222   11.3590 H       1  LIG1        0.0000
     62 H           8.7093    2.5220   12.5446 H       1  LIG1        0.0000
     63 H           9.4324    2.5113   11.1168 H       1  LIG1        0.0000
     64 C           7.2780    3.4179    9.6843 C.3     1  LIG1        0.0000
     65 H           6.7142    4.1657    9.3979 H       1  LIG1        0.0000
     66 H           6.7756    2.5799    9.6082 H       1  LIG1        0.0000
     67 H           8.0750    3.3735    9.1153 H       1  LIG1        0.0000
     68 B           5.0664    3.5282   14.5209 B       1  LIG1        0.0000
     69 O           6.3385    3.6639   14.9607 O.3     1  LIG1        0.0000
     70 C           6.6272    2.4919   15.7870 C.3     1  LIG1        0.0000
     71 C           5.5682    1.4598   15.3105 C.3     1  LIG1        0.0000
     72 O           4.5065    2.3244   14.7926 O.3     1  LIG1        0.0000
     73 C           6.4516    2.9457   17.2247 C.3     1  LIG1        0.0000
     74 H           5.5205    3.2121   17.3721 H       1  LIG1        0.0000
     75 H           7.0416    3.7084   17.3997 H       1  LIG1        0.0000
     76 H           6.6801    2.2100   17.8289 H       1  LIG1        0.0000
     77 C           8.0613    2.0714   15.5527 C.3     1  LIG1        0.0000
     78 H           8.1659    1.7674   14.6269 H       1  LIG1        0.0000
     79 H           8.2921    1.3397   16.1631 H       1  LIG1        0.0000
     80 H           8.6559    2.8328   15.7148 H       1  LIG1        0.0000
     81 C           6.0162    0.6107   14.1401 C.3     1  LIG1        0.0000
     82 H           6.3834    1.1891   13.4392 H       1  LIG1        0.0000
     83 H           5.2488    0.1130   13.7855 H       1  LIG1        0.0000
     84 H           6.7039   -0.0188   14.4378 H       1  LIG1        0.0000
     85 C           4.9975    0.5945   16.4211 C.3     1  LIG1        0.0000
     86 H           4.7156    1.1648   17.1660 H       1  LIG1        0.0000
     87 H           5.6831   -0.0336   16.7304 H       1  LIG1        0.0000
     88 H           4.2256    0.0955   16.0824 H       1  LIG1        0.0000
@<TRIPOS>BOND
     1    45    43    1
     2    44    43    1
     3    43    46    1
     4    43    34    1
     5    67    64    1
     6    42    39    1
     7    65    64    1
     8    53    52    1
     9    17    16    1
    10    66    64    1
    11    40    39    1
    12    64    50    1
    13    39    34    1
    14    39    41    1
    15    54    52    1
    16    52    55    1
    17    52    49    1
    18    34    15    1
    19    34    35    1
    20    16    15   ar
    21    16    18   ar
    22    19    18    1
    23    15    13   ar
    24    18    20   ar
    25    36    35    1
    26    63    60    1
    27    50    49    1
    28    50    60    1
    29    50    51    1
    30    61    60    1
    31    49    48    1
    32    49    56    1
    33    35    37    1
    34    35    38    1
    35    60    62    1
    36    48    47    1
    37    51    47    1
    38    13    14    1
    39    13    12   ar
    40    47     1    1
    41    20    12   ar
    42    20     1   ar
    43    58    56    1
    44    56    57    1
    45    56    59    1
    46    12    11   ar
    47     1     2   ar
    48    82    81    1
    49    83    81    1
    50     2     3   ar
    51     2    68    1
    52    11     3   ar
    53    11     9   ar
    54    81    84    1
    55    81    71    1
    56    10     9    1
    57     3     4   ar
    58    68    72    1
    59    68    69    1
    60     9     8   ar
    61    78    77    1
    62    72    71    1
    63    69    70    1
    64    31    30    1
    65    71    70    1
    66    71    85    1
    67    77    80    1
    68    77    70    1
    69    77    79    1
    70     4     5    1
    71     4     6   ar
    72     8     6   ar
    73     8    21    1
    74    70    73    1
    75    32    30    1
    76    27    26    1
    77    30    33    1
    78    30    21    1
    79    88    85    1
    80     6     7    1
    81    85    87    1
    82    85    86    1
    83    21    26    1
    84    21    22    1
    85    26    29    1
    86    26    28    1
    87    73    74    1
    88    73    75    1
    89    73    76    1
    90    24    22    1
    91    22    25    1
    92    22    23    1
