@<TRIPOS>MOLECULE
?
 101 106 0 0 0
SMALL
GASTEIGER

@<TRIPOS>ATOM
      1 S           7.0869    8.7387    5.9733 S.O2    1  LIG1        0.0751
      2 F           9.8350    3.1846    5.8826 F       1  LIG1       -0.2055
      3 O           5.8886    8.1175    5.5251 O.2     1  LIG1       -0.1498
      4 O           8.3285    8.0991    5.7417 O.2     1  LIG1       -0.1498
      5 O           7.7327    9.1013    3.0336 O.3     1  LIG1       -0.4583
      6 O           8.9588    7.6480    1.8869 O.2     1  LIG1       -0.2500
      7 O           6.0774    8.9897    0.6724 O.2     1  LIG1       -0.2742
      8 O           3.1975    7.3283   -1.0019 O.2     1  LIG1       -0.2258
      9 O           3.3819    8.9947    0.4558 O.3     1  LIG1       -0.4443
     10 N           7.1912   10.2241    5.3205 N.pl3   1  LIG1       -0.1961
     11 N           4.6792    7.2170    0.7122 N.am    1  LIG1       -0.2068
     12 C           8.4848   10.6451    4.7491 C.3     1  LIG1        0.0869
     13 C           8.8662    9.8878    3.4562 C.3     1  LIG1        0.1292
     14 C           9.2545   10.9845    2.4569 C.3     1  LIG1        0.0123
     15 C           7.9548   11.6576    2.0091 C.3     1  LIG1       -0.0434
     16 C           7.4765   12.3880    3.2556 C.3     1  LIG1       -0.0472
     17 C           8.5724   12.0928    4.3013 C.3     1  LIG1       -0.0114
     18 C           9.8221   12.0409    3.4177 C.3     1  LIG1       -0.0214
     19 C          11.1071   11.6083    4.1445 C.3     1  LIG1       -0.0589
     20 C          10.1389   13.3860    2.7652 C.3     1  LIG1       -0.0589
     21 C          10.1407   10.5232    1.3301 C.3     1  LIG1       -0.0556
     22 C           7.9307    7.9988    2.3347 C.2     1  LIG1        0.3201
     23 C           6.6384    7.2422    2.1832 C.3     1  LIG1        0.1397
     24 C           5.7967    7.9185    1.1175 C.2     1  LIG1        0.2388
     25 C           4.7010    5.7562    0.6046 C.3     1  LIG1        0.0261
     26 C           5.4444    5.1364    1.7500 C.3     1  LIG1       -0.0285
     27 C           6.8277    5.7499    1.9201 C.3     1  LIG1        0.0070
     28 C           3.6901    7.8473   -0.0585 C.2     1  LIG1        0.4098
     29 C           7.6249    5.0674    2.9991 C.ar    1  LIG1       -0.0428
     30 C           8.7049    4.3302    2.6868 C.ar    1  LIG1       -0.0556
     31 C           9.4605    3.6896    3.6529 C.ar    1  LIG1       -0.0262
     32 C           9.0995    3.8023    4.9112 C.ar    1  LIG1        0.1234
     33 C           7.9970    4.4481    5.2753 C.ar    1  LIG1       -0.0262
     34 C           7.2583    5.1009    4.3093 C.ar    1  LIG1       -0.0556
     35 C           2.5818    9.9755   -0.2910 C.3     1  LIG1        0.1068
     36 C           1.2232    9.4204   -0.6259 C.3     1  LIG1       -0.0253
     37 C           3.3399   10.3857   -1.5281 C.3     1  LIG1       -0.0253
     38 C           2.4709   11.0906    0.6923 C.3     1  LIG1       -0.0253
     39 C           6.2105   11.1642    5.7962 C.ar    1  LIG1        0.0522
     40 C           4.9403   11.1265    5.2607 C.ar    1  LIG1       -0.0361
     41 C           3.9790   11.9751    5.7417 C.ar    1  LIG1       -0.0484
     42 C           4.2959   12.8301    6.7530 C.ar    1  LIG1       -0.0558
     43 C           5.5528   12.8829    7.3057 C.ar    1  LIG1       -0.0484
     44 C           6.5139   12.0364    6.8074 C.ar    1  LIG1       -0.0361
     45 C           2.5945   11.9446    5.1424 C.3     1  LIG1       -0.0396
     46 C           5.8685   13.7977    8.4525 C.3     1  LIG1       -0.0396
     47 C           6.9043    9.0305    7.6964 C.ar    1  LIG1        0.1087
     48 C           5.6545    8.9925    8.2532 C.ar    1  LIG1       -0.0351
     49 C           5.5190    9.3378    9.5687 C.ar    1  LIG1       -0.0599
     50 C           6.5863    9.7382   10.2942 C.ar    1  LIG1       -0.0616
     51 C           7.8238    9.7772    9.7334 C.ar    1  LIG1       -0.0599
     52 C           8.0000    9.4243    8.4206 C.ar    1  LIG1       -0.0351
     53 H           9.0566   10.4638    5.5504 H       1  LIG1        0.0558
     54 H           9.5907    9.2035    3.5439 H       1  LIG1        0.0759
     55 H           8.1236   12.3011    1.2610 H       1  LIG1        0.0272
     56 H           7.2826   10.9754    1.7128 H       1  LIG1        0.0272
     57 H           7.3952   13.3711    3.0881 H       1  LIG1        0.0269
     58 H           6.5870   12.0326    3.5585 H       1  LIG1        0.0269
     59 H           8.5377   12.7201    5.0787 H       1  LIG1        0.0326
     60 H          11.4107   12.3480    4.7465 H       1  LIG1        0.0235
     61 H          11.8189   11.4153    3.4682 H       1  LIG1        0.0235
     62 H          10.9253   10.7890    4.6827 H       1  LIG1        0.0235
     63 H          10.5035   14.0141    3.4549 H       1  LIG1        0.0235
     64 H          10.8178   13.2550    2.0437 H       1  LIG1        0.0235
     65 H           9.3047   13.7699    2.3732 H       1  LIG1        0.0235
     66 H          10.3468   11.2902    0.7269 H       1  LIG1        0.0236
     67 H          10.9948   10.1555    1.7062 H       1  LIG1        0.0236
     68 H           9.6750    9.8046    0.8119 H       1  LIG1        0.0236
     69 H           6.1716    7.2693    3.0695 H       1  LIG1        0.0515
     70 H           5.1546    5.5037   -0.2565 H       1  LIG1        0.0471
     71 H           3.7641    5.4147    0.5953 H       1  LIG1        0.0471
     72 H           4.9227    5.2810    2.5885 H       1  LIG1        0.0287
     73 H           5.5448    4.1566    1.5799 H       1  LIG1        0.0287
     74 H           7.3667    5.6202    1.0856 H       1  LIG1        0.0362
     75 H           8.9620    4.2363    1.7261 H       1  LIG1        0.0621
     76 H          10.2708    3.1561    3.3898 H       1  LIG1        0.0646
     77 H           7.7043    4.4677    6.2347 H       1  LIG1        0.0646
     78 H           6.4376    5.6027    4.5764 H       1  LIG1        0.0621
     79 H           0.6972   10.1057   -1.1308 H       1  LIG1        0.0268
     80 H           0.7386    9.1877    0.2193 H       1  LIG1        0.0268
     81 H           1.3262    8.5994   -1.1853 H       1  LIG1        0.0268
     82 H           2.8051   11.0550   -2.0397 H       1  LIG1        0.0268
     83 H           4.2152   10.7916   -1.2610 H       1  LIG1        0.0268
     84 H           3.5066    9.5809   -2.0968 H       1  LIG1        0.0268
     85 H           1.9436   11.8378    0.2883 H       1  LIG1        0.0268
     86 H           3.3930   11.4230    0.9169 H       1  LIG1        0.0268
     87 H           2.0240   10.7674    1.5188 H       1  LIG1        0.0268
     88 H           4.7279   10.4814    4.5219 H       1  LIG1        0.0639
     89 H           3.5852   13.4437    7.1064 H       1  LIG1        0.0623
     90 H           7.4428   12.0554    7.1888 H       1  LIG1        0.0639
     91 H           2.0237   12.6192    5.6049 H       1  LIG1        0.0278
     92 H           2.6576   12.1659    4.1698 H       1  LIG1        0.0278
     93 H           2.2075   11.0340    5.2567 H       1  LIG1        0.0278
     94 H           6.8287   13.6905    8.7050 H       1  LIG1        0.0278
     95 H           5.7018   14.7441    8.1721 H       1  LIG1        0.0278
     96 H           5.2866   13.5697    9.2272 H       1  LIG1        0.0278
     97 H           4.8620    8.7170    7.7097 H       1  LIG1        0.0637
     98 H           4.6175    9.2894   10.0005 H       1  LIG1        0.0618
     99 H           6.4565   10.0214   11.2483 H       1  LIG1        0.0618
    100 H           8.6100   10.0544   10.2849 H       1  LIG1        0.0618
    101 H           8.9049    9.4553    7.9980 H       1  LIG1        0.0637
@<TRIPOS>BOND
     1    84    37    1
     2    82    37    1
     3    37    83    1
     4    37    35    1
     5    81    36    1
     6    79    36    1
     7     8    28    2
     8    36    35    1
     9    36    80    1
    10    35     9    1
    11    35    38    1
    12    70    25    1
    13    28     9    1
    14    28    11   am
    15    85    38    1
    16    71    25    1
    17    25    11    1
    18    25    26    1
    19     7    24    2
    20    38    86    1
    21    38    87    1
    22    11    24   am
    23    66    21    1
    24    68    21    1
    25    74    27    1
    26    24    23    1
    27    55    15    1
    28    21    67    1
    29    21    14    1
    30    73    26    1
    31    56    15    1
    32    75    30    1
    33    26    27    1
    34    26    72    1
    35     6    22    2
    36    27    23    1
    37    27    29    1
    38    15    14    1
    39    15    16    1
    40    64    20    1
    41    23    22    1
    42    23    69    1
    43    22     5    1
    44    65    20    1
    45    14    18    1
    46    14    13    1
    47    30    29   ar
    48    30    31   ar
    49    20    18    1
    50    20    63    1
    51    29    34   ar
    52     5    13    1
    53    57    16    1
    54    16    58    1
    55    16    17    1
    56    76    31    1
    57    18    19    1
    58    18    17    1
    59    13    54    1
    60    13    12    1
    61    61    19    1
    62    31    32   ar
    63    19    62    1
    64    19    60    1
    65    92    45    1
    66    17    12    1
    67    17    59    1
    68    34    78    1
    69    34    33   ar
    70    88    40    1
    71    12    10    1
    72    12    53    1
    73    32    33   ar
    74    32     2    1
    75    45    93    1
    76    45    91    1
    77    45    41    1
    78    40    41   ar
    79    40    39   ar
    80    33    77    1
    81    10    39    1
    82    10     1    1
    83     3     1    2
    84    41    42   ar
    85     4     1    2
    86    39    44   ar
    87     1    47    1
    88    42    89    1
    89    42    43   ar
    90    44    90    1
    91    44    43   ar
    92    43    46    1
    93    47    48   ar
    94    47    52   ar
    95    97    48    1
    96   101    52    1
    97    95    46    1
    98    48    49   ar
    99    52    51   ar
   100    46    94    1
   101    46    96    1
   102    49    98    1
   103    49    50   ar
   104    51   100    1
   105    51    50   ar
   106    50    99    1
