@<TRIPOS>MOLECULE
7050195.cif
 50 50 0 0 0
SMALL
GASTEIGER

@<TRIPOS>ATOM
      1 C          17.4331   -1.4271   17.0928 C.2     1  LIG1        0.3427
      2 C          16.6346   -0.3485   17.7641 C.3     1  LIG1        0.1857
      3 H          16.1416    0.1592   17.0841 H       1  LIG1        0.0815
      4 H          15.9802   -0.7584   18.3672 H       1  LIG1        0.0815
      5 C          16.7894    1.3553   19.3975 C.ar    1  LIG1        0.1284
      6 C          17.4984    1.8219   20.5019 C.ar    1  LIG1        0.0002
      7 C          16.7707    2.6394   21.3612 C.ar    1  LIG1       -0.0474
      8 H          17.2350    2.9908   22.1001 H       1  LIG1        0.0626
      9 C          15.4267    2.9925   21.2439 C.ar    1  LIG1        0.0002
     10 C          14.7747    2.4634   20.1237 C.ar    1  LIG1        0.1284
     11 C          15.4675    1.6963   19.2055 C.ar    1  LIG1        0.0224
     12 H          15.0256    1.3999   18.4318 H       1  LIG1        0.0691
     13 C          18.9687    1.4520   20.7646 C.3     1  LIG1       -0.0092
     14 C          19.1173   -0.0706   20.8942 C.3     1  LIG1       -0.0559
     15 H          20.0483   -0.2924   21.0561 H       1  LIG1        0.0238
     16 H          18.8207   -0.4956   20.0736 H       1  LIG1        0.0238
     17 H          18.5760   -0.3862   21.6347 H       1  LIG1        0.0238
     18 C          19.8616    1.9655   19.6202 C.3     1  LIG1       -0.0559
     19 H          20.7857    1.7270   19.7989 H       1  LIG1        0.0238
     20 H          19.7843    2.9300   19.5565 H       1  LIG1        0.0238
     21 H          19.5800    1.5631   18.7841 H       1  LIG1        0.0238
     22 C          19.4826    2.0564   22.0684 C.3     1  LIG1       -0.0559
     23 H          20.4114    1.8069   22.1970 H       1  LIG1        0.0238
     24 H          18.9521    1.7241   22.8111 H       1  LIG1        0.0238
     25 H          19.4105    3.0232   22.0257 H       1  LIG1        0.0238
     26 C          14.7089    3.8598   22.2953 C.3     1  LIG1       -0.0092
     27 C          15.6747    4.3872   23.3531 C.3     1  LIG1       -0.0559
     28 H          15.1883    4.9268   23.9940 H       1  LIG1        0.0238
     29 H          16.3569    4.9297   22.9274 H       1  LIG1        0.0238
     30 H          16.0935    3.6410   23.8098 H       1  LIG1        0.0238
     31 C          14.0628    5.0825   21.6379 C.3     1  LIG1       -0.0559
     32 H          13.6127    5.6122   22.3134 H       1  LIG1        0.0238
     33 H          13.4182    4.7901   20.9753 H       1  LIG1        0.0238
     34 H          14.7470    5.6192   21.2113 H       1  LIG1        0.0238
     35 C          13.6510    3.0134   23.0157 C.3     1  LIG1       -0.0559
     36 H          13.1963    3.5593   23.6740 H       1  LIG1        0.0238
     37 H          14.0826    2.2654   23.4575 H       1  LIG1        0.0238
     38 H          13.0091    2.6811   22.3683 H       1  LIG1        0.0238
     39 C          12.7585    2.3053   18.8267 C.3     1  LIG1        0.1857
     40 H          11.7921    2.2874   18.9845 H       1  LIG1        0.0815
     41 H          13.0420    1.3964   18.5934 H       1  LIG1        0.0815
     42 C          13.0502    3.2212   17.6775 C.2     1  LIG1        0.3427
     43 O          17.4528    0.5268   18.4935 O.3     1  LIG1       -0.4804
     44 O          18.6351   -1.5272   17.1435 O.2     1  LIG1       -0.2472
     45 O          16.6382   -2.2150   16.4157 O.3     1  LIG1       -0.4783
     46 H          17.0895   -2.7743   16.0014 H       1  LIG1        0.2952
     47 O          13.4149    2.7031   20.0109 O.3     1  LIG1       -0.4804
     48 O          12.6983    2.7656   16.5346 O.3     1  LIG1       -0.4783
     49 H          12.8568    3.3330   15.9497 H       1  LIG1        0.2952
     50 O          13.5385    4.3426   17.8475 O.2     1  LIG1       -0.2472
@<TRIPOS>BOND
     1    49    48    1
     2    46    45    1
     3    45     1    1
     4    48    42    1
     5     3     2    1
     6     1    44    2
     7     1     2    1
     8    42    50    2
     9    42    39    1
    10     2     4    1
    11     2    43    1
    12    12    11    1
    13    43     5    1
    14    41    39    1
    15    21    18    1
    16    39    40    1
    17    39    47    1
    18    11     5   ar
    19    11    10   ar
    20     5     6   ar
    21    20    18    1
    22    18    19    1
    23    18    13    1
    24    47    10    1
    25    16    14    1
    26    10     9   ar
    27     6    13    1
    28     6     7   ar
    29    13    14    1
    30    13    22    1
    31    14    15    1
    32    14    17    1
    33    33    31    1
    34    34    31    1
    35     9     7   ar
    36     9    26    1
    37     7     8    1
    38    31    26    1
    39    31    32    1
    40    25    22    1
    41    22    23    1
    42    22    24    1
    43    26    35    1
    44    26    27    1
    45    38    35    1
    46    29    27    1
    47    35    37    1
    48    35    36    1
    49    27    30    1
    50    27    28    1
