@<TRIPOS>MOLECULE
?
 56 56 0 0 0
SMALL
GASTEIGER

@<TRIPOS>ATOM
      1 C          -0.3789    0.3096    3.3288 C.ar    1  LIG1        0.0281
      2 H          -0.0678   -0.3047    3.9840 H       1  LIG1        0.0830
      3 C          -0.5353    1.6362    3.6984 C.ar    1  LIG1       -0.0364
      4 H          -0.3319    1.9129    4.5842 H       1  LIG1        0.0639
      5 C          -0.9957    2.5672    2.7582 C.ar    1  LIG1       -0.0222
      6 C          -1.2538    2.0812    1.4737 C.ar    1  LIG1       -0.0364
      7 H          -1.5545    2.6700    0.7910 H       1  LIG1        0.0639
      8 C          -1.0689    0.7341    1.2016 C.ar    1  LIG1        0.0281
      9 H          -1.2574    0.4260    0.3232 H       1  LIG1        0.0830
     10 C          -1.2242    3.9806    3.0607 C.2     1  LIG1       -0.0539
     11 H          -1.4728    4.5444    2.3377 H       1  LIG1        0.0624
     12 C          -1.1137    4.5488    4.2669 C.2     1  LIG1       -0.0540
     13 H          -0.8345    3.9859    4.9791 H       1  LIG1        0.0624
     14 C          -1.3798    5.9503    4.6010 C.ar    1  LIG1       -0.0248
     15 C          -1.7911    6.8968    3.6497 C.ar    1  LIG1       -0.0511
     16 H          -1.8789    6.6377    2.7399 H       1  LIG1        0.0625
     17 C          -2.0705    8.1939    4.0140 C.ar    1  LIG1       -0.0194
     18 H          -2.3520    8.8197    3.3571 H       1  LIG1        0.0654
     19 C          -1.9425    8.5965    5.3518 C.ar    1  LIG1        0.1205
     20 C          -1.5181    7.6865    6.3114 C.ar    1  LIG1       -0.0194
     21 H          -1.4137    7.9533    7.2172 H       1  LIG1        0.0654
     22 C          -1.2479    6.3749    5.9242 C.ar    1  LIG1       -0.0511
     23 H          -0.9659    5.7495    6.5817 H       1  LIG1        0.0625
     24 C          -2.1834   10.3937    6.9370 C.3     1  LIG1        0.0896
     25 H          -1.2582   10.3196    7.2816 H       1  LIG1        0.0696
     26 H          -2.7878    9.8849    7.5343 H       1  LIG1        0.0696
     27 C          -2.6077   11.8439    6.8560 C.3     1  LIG1       -0.0186
     28 H          -3.5341   11.8845    6.5088 H       1  LIG1        0.0298
     29 H          -2.0238   12.3099    6.2063 H       1  LIG1        0.0298
     30 C          -2.5526   12.5886    8.1829 C.3     1  LIG1       -0.0500
     31 H          -1.6488   12.4933    8.5768 H       1  LIG1        0.0266
     32 H          -3.2038   12.1886    8.8125 H       1  LIG1        0.0266
     33 C          -2.8703   14.0684    7.9943 C.3     1  LIG1       -0.0530
     34 H          -2.2039   14.4600    7.3763 H       1  LIG1        0.0265
     35 H          -3.7592   14.1492    7.5659 H       1  LIG1        0.0265
     36 C          -2.8750   14.8792    9.2831 C.3     1  LIG1       -0.0531
     37 H          -1.9846   14.8110    9.7104 H       1  LIG1        0.0265
     38 H          -3.5402   14.4909    9.9060 H       1  LIG1        0.0265
     39 C          -3.2069   16.3498    9.0549 C.3     1  LIG1       -0.0533
     40 H          -2.6225   16.6986    8.3350 H       1  LIG1        0.0265
     41 H          -4.1427   16.4196    8.7408 H       1  LIG1        0.0265
     42 C          -3.0396   17.2255   10.2861 C.3     1  LIG1       -0.0559
     43 H          -2.1018   17.1714   10.5998 H       1  LIG1        0.0263
     44 H          -3.6227   16.8852   11.0092 H       1  LIG1        0.0263
     45 C          -3.3890   18.6817   10.0019 C.3     1  LIG1       -0.0653
     46 H          -2.8494   19.0069    9.2511 H       1  LIG1        0.0230
     47 H          -3.2033   19.2239   10.7966 H       1  LIG1        0.0230
     48 H          -4.3399   18.7510    9.7748 H       1  LIG1        0.0230
     49 N          -0.6409   -0.1562    2.1009 N.ar    1  LIG1       -0.2632
     50 O          -2.2640    9.8968    5.5909 O.3     1  LIG1       -0.4920
     51 BR         -1.2341   -2.8350    1.2695 Br      2  LIG2       -0.0484
     52 C          -1.6790   -4.5131    0.5570 C.2     2  LIG2        0.0772
     53 C          -2.9958   -4.9064    0.3870 C.2     2  LIG2        0.1725
     54 C          -0.6904   -5.4067    0.1584 C.3     2  LIG2        0.2287
     55 F          -3.9928   -4.0793    0.7369 F       2  LIG2       -0.2015
     56 F           0.6055   -5.0850    0.3120 F       2  LIG2       -0.2284
@<TRIPOS>BOND
     1    54    56    1
     2    54    52    1
     3     9     8    1
     4    53    52    2
     5    53    55    1
     6    52    51    1
     7     7     6    1
     8     8     6   ar
     9     8    49   ar
    10     6     5   ar
    11    49     1   ar
    12    11    10    1
    13    16    15    1
    14     5    10    1
    15     5     3   ar
    16    10    12    2
    17     1     3   ar
    18     1     2    1
    19    18    17    1
    20    15    17   ar
    21    15    14   ar
    22     3     4    1
    23    17    19   ar
    24    12    14    1
    25    12    13    1
    26    14    22   ar
    27    19    50    1
    28    19    20   ar
    29    50    24    1
    30    22    20   ar
    31    22    23    1
    32    29    27    1
    33    20    21    1
    34    28    27    1
    35    27    24    1
    36    27    30    1
    37    24    25    1
    38    24    26    1
    39    34    33    1
    40    35    33    1
    41    33    30    1
    42    33    36    1
    43    30    31    1
    44    30    32    1
    45    40    39    1
    46    41    39    1
    47    39    36    1
    48    39    42    1
    49    46    45    1
    50    36    37    1
    51    36    38    1
    52    48    45    1
    53    45    42    1
    54    45    47    1
    55    42    43    1
    56    42    44    1
