@<TRIPOS>MOLECULE
?
 38 38 0 0 0
SMALL
GASTEIGER

@<TRIPOS>ATOM
      1 C           3.1782    0.7264    2.1525 C.ar    1  LIG1        0.1355
      2 C           2.3620    0.9097    3.2537 C.ar    1  LIG1        0.0232
      3 H           1.4449    1.1397    3.1649 H       1  LIG1        0.0691
      4 C           2.9504    0.7394    4.4853 C.ar    1  LIG1        0.1355
      5 C           4.2794    0.4040    4.6490 C.ar    1  LIG1        0.0226
      6 H           4.6510    0.2973    5.5163 H       1  LIG1        0.0691
      7 C           5.0536    0.2300    3.5202 C.ar    1  LIG1        0.1279
      8 C           4.5047    0.3951    2.2510 C.ar    1  LIG1        0.0226
      9 H           5.0370    0.2821    1.4717 H       1  LIG1        0.0691
     10 C           2.1501    1.9642    0.3957 C.2     1  LIG1        0.1586
     11 C           1.2807    1.9757   -0.7083 C.2     1  LIG1        0.1682
     12 C           0.8647    3.1763   -1.2323 C.2     1  LIG1       -0.0256
     13 H           0.2743    3.1763   -1.9762 H       1  LIG1        0.0642
     14 C           2.5633    3.1763    0.9202 C.2     1  LIG1       -0.0135
     15 H           3.1503    3.1763    1.6673 H       1  LIG1        0.0656
     16 C           1.8163    1.9693    6.1847 C.2     1  LIG1        0.1586
     17 C           0.9773    1.9757    7.2990 C.2     1  LIG1        0.1682
     18 C           0.5674    3.1763    7.8354 C.2     1  LIG1       -0.0256
     19 H          -0.0100    3.1763    8.5890 H       1  LIG1        0.0642
     20 C           2.2467    3.1763    5.6554 C.2     1  LIG1       -0.0135
     21 H           2.8449    3.1763    4.9179 H       1  LIG1        0.0656
     22 C           7.1351    0.2770    4.7048 C.3     1  LIG1        0.1113
     23 H           8.0544   -0.0851    4.6414 H       1  LIG1        0.0745
     24 H           6.7255   -0.0699    5.5373 H       1  LIG1        0.0745
     25 C           7.1883    1.7749    4.7590 C.2     1  LIG1       -0.0285
     26 C           6.7759    2.4864    5.8854 C.3     1  LIG1       -0.0021
     27 H           6.4920    2.0163    6.6613 H       1  LIG1        0.0359
     28 C           7.5981    2.4864    3.6360 C.2     1  LIG1       -0.0590
     29 H           7.8808    2.0163    2.8609 H       1  LIG1        0.0618
     30 O           2.6086    0.7811    0.8665 O.3     1  LIG1       -0.4535
     31 O           2.1492    0.7744    5.6478 O.3     1  LIG1       -0.4535
     32 O           6.3617   -0.1668    3.5643 O.3     1  LIG1       -0.4874
     33 N           0.7324    0.7655   -1.3179 N.pl3   1  LIG1        0.0601
     34 O          -0.0882    0.9094   -2.2145 O.2     1  LIG1       -0.1260
     35 O           1.1112   -0.3269   -0.9092 O.2     1  LIG1       -0.1260
     36 N           0.4269    0.7560    7.8904 N.pl3   1  LIG1        0.0601
     37 O           1.0142   -0.3265    7.7125 O.2     1  LIG1       -0.1260
     38 O          -0.5210    0.8424    8.6096 O.2     1  LIG1       -0.1260
@<TRIPOS>BOND
     1    34    33    2
     2    13    12    1
     3    33    35    2
     4    33    11    1
     5    12    11    2
     6    11    10    1
     7    10    30    1
     8    10    14    2
     9    30     1    1
    10    14    15    1
    11     9     8    1
    12     1     8   ar
    13     1     2   ar
    14     8     7   ar
    15    29    28    1
    16     3     2    1
    17     2     4   ar
    18     7    32    1
    19     7     5   ar
    20    32    22    1
    21    28    25    2
    22     4     5   ar
    23     4    31    1
    24    23    22    1
    25     5     6    1
    26    22    25    1
    27    22    24    1
    28    25    26    1
    29    21    20    1
    30    31    16    1
    31    20    16    2
    32    26    27    1
    33    16    17    1
    34    17    18    2
    35    17    36    1
    36    37    36    2
    37    18    19    1
    38    36    38    2
