@<TRIPOS>MOLECULE
7051201.cif
 54 58 0 0 0
SMALL
GASTEIGER

@<TRIPOS>ATOM
      1 O           7.2564    0.2899    7.9683 O.3     1  LIG1       -0.4563
      2 O           5.7100    0.9130   11.0594 O.2     1  LIG1       -0.4757
      3 O           3.2245    6.6530    8.9375 O.2     1  LIG1       -0.1261
      4 O           4.5546    7.5993   10.3397 O.2     1  LIG1       -0.1261
      5 N           7.3835    2.1083    9.3737 N.pl3   1  LIG1       -0.2873
      6 N           5.5594   -0.9902    9.7899 N.2     1  LIG1       -0.2081
      7 N           4.2285    6.6397    9.6490 N.pl3   1  LIG1        0.0564
      8 C           6.4770    1.1181    8.8357 C.3     1  LIG1        0.2635
      9 C           5.8857    0.2271    9.9221 C.2     1  LIG1        0.2564
     10 C           5.8512   -1.5582    8.5342 C.ar    1  LIG1        0.1168
     11 C           5.3113   -2.8286    8.1946 C.ar    1  LIG1        0.0112
     12 C           4.3644   -3.4854    9.0069 C.ar    1  LIG1       -0.0519
     13 H           4.0555   -3.0677    9.8022 H       1  LIG1        0.0624
     14 C           3.8870   -4.7186    8.6580 C.ar    1  LIG1       -0.0611
     15 H           3.2502   -5.1512    9.2145 H       1  LIG1        0.0618
     16 C           4.3297   -5.3534    7.4815 C.ar    1  LIG1       -0.0612
     17 H           3.9958   -6.2121    7.2504 H       1  LIG1        0.0618
     18 C           5.2373   -4.7357    6.6743 C.ar    1  LIG1       -0.0540
     19 H           5.5274   -5.1696    5.8805 H       1  LIG1        0.0624
     20 C           5.7546   -3.4607    6.9985 C.ar    1  LIG1       -0.0156
     21 C           6.7061   -2.8050    6.1784 C.ar    1  LIG1       -0.0504
     22 H           7.0218   -3.2348    5.3928 H       1  LIG1        0.0625
     23 C           7.1753   -1.5676    6.4985 C.ar    1  LIG1       -0.0171
     24 H           7.8031   -1.1314    5.9344 H       1  LIG1        0.0655
     25 C           6.7224   -0.9447    7.6671 C.ar    1  LIG1        0.1500
     26 C           5.3757    1.9645    8.0978 C.3     1  LIG1        0.0582
     27 C           5.4921    3.2640    8.8585 C.ar    1  LIG1       -0.0125
     28 C           4.6615    4.3543    8.8808 C.ar    1  LIG1       -0.0258
     29 H           3.8450    4.3601    8.3955 H       1  LIG1        0.0644
     30 C           5.0573    5.4569    9.6436 C.ar    1  LIG1        0.1266
     31 C           6.2356    5.4693   10.3667 C.ar    1  LIG1       -0.0297
     32 H           6.4675    6.2321   10.8828 H       1  LIG1        0.0641
     33 C           7.0758    4.3729   10.3384 C.ar    1  LIG1       -0.0381
     34 H           7.8874    4.3647   10.8315 H       1  LIG1        0.0637
     35 C           6.6957    3.2813    9.5645 C.ar    1  LIG1        0.0368
     36 C           8.5000    1.7232   10.2106 C.3     1  LIG1        0.0047
     37 H           8.8378    0.8493    9.9231 H       1  LIG1        0.0429
     38 H           8.2050    1.6695   11.1444 H       1  LIG1        0.0429
     39 H           9.2135    2.3901   10.1308 H       1  LIG1        0.0429
     40 C           3.9870    1.3384    8.1465 C.3     1  LIG1       -0.0499
     41 H           4.0050    0.4691    7.6961 H       1  LIG1        0.0240
     42 H           3.3474    1.9271    7.6947 H       1  LIG1        0.0240
     43 H           3.7164    1.2173    9.0804 H       1  LIG1        0.0240
     44 C           5.7913    2.2011    6.6409 C.3     1  LIG1       -0.0499
     45 H           5.7767    1.3507    6.1553 H       1  LIG1        0.0240
     46 H           6.6960    2.5756    6.6167 H       1  LIG1        0.0240
     47 H           5.1657    2.8286    6.2210 H       1  LIG1        0.0240
     48 C           5.1223    0.1921   12.1687 C.3     1  LIG1        0.0883
     49 H           5.6887   -0.5810   12.4144 H       1  LIG1        0.0694
     50 H           4.2232   -0.1410   11.9240 H       1  LIG1        0.0694
     51 C           5.0268    1.1455   13.3084 C.3     1  LIG1       -0.0306
     52 H           4.6452    0.6868   14.0867 H       1  LIG1        0.0262
     53 H           4.4504    1.8980   13.0573 H       1  LIG1        0.0262
     54 H           5.9212    1.4794   13.5306 H       1  LIG1        0.0262
@<TRIPOS>BOND
     1    22    21    1
     2    19    18    1
     3    24    23    1
     4    45    44    1
     5    21    23   ar
     6    21    20   ar
     7    47    44    1
     8    23    25   ar
     9    46    44    1
    10    44    26    1
    11    18    20   ar
    12    18    16   ar
    13    20    11   ar
    14    17    16    1
    15    16    14   ar
    16    25     1    1
    17    25    10   ar
    18    42    40    1
    19    41    40    1
    20     1     8    1
    21    26    40    1
    22    26     8    1
    23    26    27    1
    24    40    43    1
    25    11    10   ar
    26    11    12   ar
    27    29    28    1
    28    10     6    1
    29    14    12   ar
    30    14    15    1
    31     8     5    1
    32     8     9    1
    33    27    28   ar
    34    27    35   ar
    35    28    30   ar
    36     3     7    2
    37    12    13    1
    38     5    35    1
    39     5    36    1
    40    35    33   ar
    41    30     7    1
    42    30    31   ar
    43     7     4    2
    44     6     9    2
    45     9     2    1
    46    37    36    1
    47    39    36    1
    48    36    38    1
    49    33    31   ar
    50    33    34    1
    51    31    32    1
    52     2    48    1
    53    50    48    1
    54    48    49    1
    55    48    51    1
    56    53    51    1
    57    51    54    1
    58    51    52    1
