@<TRIPOS>MOLECULE
1,4-bis(9-hydroxyfluoren-9-yl)benzene. morpholine clathrate
 43 45 0 0 0
SMALL
GASTEIGER

@<TRIPOS>ATOM
      1 O           1.5710    0.9081    0.5308 O.3     1  LIG1       -0.3754
      2 H           1.3934    0.0803    0.9863 H       1  LIG1        0.2114
      3 C          -0.0623    2.3882    2.8092 C.ar    1  LIG1       -0.0546
      4 H          -0.5550    2.6125    2.0281 H       1  LIG1        0.0622
      5 C          -0.6554    2.4606    4.0669 C.ar    1  LIG1       -0.0614
      6 H          -1.5564    2.7519    4.1462 H       1  LIG1        0.0618
      7 C           0.0575    2.1115    5.2040 C.ar    1  LIG1       -0.0612
      8 H          -0.3613    2.1627    6.0550 H       1  LIG1        0.0618
      9 C           1.3747    1.6878    5.1132 C.ar    1  LIG1       -0.0536
     10 H           1.8595    1.4454    5.8929 H       1  LIG1        0.0624
     11 C           4.3941    0.7205    4.1991 C.ar    1  LIG1       -0.0536
     12 H           4.3256    0.6276    5.1419 H       1  LIG1        0.0624
     13 C           5.5593    0.3723    3.5359 C.ar    1  LIG1       -0.0612
     14 H           6.2919    0.0246    4.0311 H       1  LIG1        0.0618
     15 C           5.6763    0.5226    2.1604 C.ar    1  LIG1       -0.0614
     16 H           6.4866    0.2829    1.7258 H       1  LIG1        0.0618
     17 C           4.6131    1.0222    1.4152 C.ar    1  LIG1       -0.0546
     18 H           4.6934    1.1394    0.4759 H       1  LIG1        0.0622
     19 C           2.1194    1.8462    1.4676 C.3     1  LIG1        0.1391
     20 C           2.3138    3.1539    0.7077 C.2     1  LIG1       -0.0253
     21 C           2.6245    3.1353   -0.6496 C.3     1  LIG1       -0.0019
     22 H           2.6850    2.3043   -1.1066 H       1  LIG1        0.0359
     23 C           2.2393    4.3865    1.3433 C.2     1  LIG1       -0.0588
     24 H           2.0321    4.4213    2.2697 H       1  LIG1        0.0618
     25 C           1.2547    1.9850    2.7176 C.ar    1  LIG1        0.0002
     26 C           1.9722    1.6248    3.8629 C.ar    1  LIG1       -0.0110
     27 C           3.3266    1.2094    3.4552 C.ar    1  LIG1       -0.0110
     28 C           3.4363    1.3451    2.0673 C.ar    1  LIG1        0.0002
     29 O           2.0501   -2.9940    3.4046 O.3     2  LIG2       -0.3773
     30 N           0.6777   -1.5358    1.3904 N.3     2  LIG2       -0.3116
     31 H          -0.0268   -1.4943    0.7374 H       2  LIG2        0.1221
     32 C           1.2060   -1.9041    3.7397 C.3     2  LIG2        0.0602
     33 H           1.7451   -1.0752    3.7874 H       2  LIG2        0.0572
     34 H           0.8074   -2.0611    4.6325 H       2  LIG2        0.0572
     35 C           0.1055   -1.7253    2.7268 C.3     2  LIG2        0.0194
     36 H          -0.4805   -2.5228    2.7278 H       2  LIG2        0.0446
     37 H          -0.4440   -0.9383    2.9684 H       2  LIG2        0.0446
     38 C           1.5579   -2.6599    1.0588 C.3     2  LIG2        0.0194
     39 H           1.9757   -2.5107    0.1736 H       2  LIG2        0.0446
     40 H           1.0325   -3.4978    1.0167 H       2  LIG2        0.0446
     41 C           2.6241   -2.7765    2.1158 C.3     2  LIG2        0.0602
     42 H           3.2268   -3.5294    1.8932 H       2  LIG2        0.0572
     43 H           3.1641   -1.9470    2.1316 H       2  LIG2        0.0572
@<TRIPOS>BOND
     1    22    21    1
     2    21    20    1
     3    39    38    1
     4    18    17    1
     5     1     2    1
     6     1    19    1
     7    20    23    2
     8    20    19    1
     9    31    30    1
    10    40    38    1
    11    38    30    1
    12    38    41    1
    13    23    24    1
    14    30    35    1
    15    17    28   ar
    16    17    15   ar
    17    19    28    1
    18    19    25    1
    19    16    15    1
    20    42    41    1
    21     4     3    1
    22    28    27   ar
    23    41    43    1
    24    41    29    1
    25    15    13   ar
    26    25     3   ar
    27    25    26   ar
    28    35    36    1
    29    35    37    1
    30    35    32    1
    31     3     5   ar
    32    29    32    1
    33    27    26    1
    34    27    11   ar
    35    13    14    1
    36    13    11   ar
    37    32    33    1
    38    32    34    1
    39    26     9   ar
    40     5     6    1
    41     5     7   ar
    42    11    12    1
    43     9     7   ar
    44     9    10    1
    45     7     8    1
