@<TRIPOS>MOLECULE
?
 94 97 0 0 0
SMALL
GASTEIGER

@<TRIPOS>ATOM
      1 P           1.2460    3.8241   12.7246 P.3     1  LIG1        0.4716
      2 S          -1.1196    4.5547   10.5627 S.3     1  LIG1       -0.0821
      3 O           2.7193    4.0845   13.4160 O.2     1  LIG1       -0.3509
      4 O           1.4638    3.1691   11.2622 O.3     1  LIG1       -0.3991
      5 N           1.3894    2.1355   13.3583 N.am    1  LIG1       -0.0316
      6 O          -0.4171    1.4223   12.3005 O.3     1  LIG1       -0.4460
      7 N           2.6475    1.8682   13.9497 N.2     1  LIG1       -0.0891
      8 O           1.3546    5.3865   12.1160 O.3     1  LIG1       -0.3991
      9 N          -0.0464    4.1519   13.6429 N.3     1  LIG1       -0.1947
     10 H          -0.3999    4.9170   13.4742 H       1  LIG1        0.1369
     11 O           4.4830    3.2188   14.4169 O.2     1  LIG1       -0.4457
     12 C           0.7429    1.0333   12.8563 C.2     1  LIG1        0.4344
     13 C           0.4128    6.3849   11.9769 C.ar    1  LIG1        0.1504
     14 C           0.2965    4.3437    9.5120 C.ar    1  LIG1        0.0556
     15 O           1.1088   -0.1045   12.9454 O.2     1  LIG1       -0.2238
     16 C           3.2753    2.9639   13.9430 C.2     1  LIG1        0.4154
     17 C           1.4329    3.6929    9.9735 C.ar    1  LIG1        0.1504
     18 C          -0.7693    6.1407   11.2675 C.ar    1  LIG1        0.0556
     19 C           0.6900    7.6710   12.4833 C.ar    1  LIG1        0.0016
     20 C          -0.2945    8.6412   12.2782 C.ar    1  LIG1       -0.0516
     21 H          -0.1351    9.4974   12.6010 H       1  LIG1        0.0624
     22 C           2.5176    3.4175    9.1270 C.ar    1  LIG1        0.0016
     23 C          -1.7109    7.1485   11.1109 C.ar    1  LIG1       -0.0415
     24 H          -2.5017    6.9718   10.6538 H       1  LIG1        0.0632
     25 C          -1.4861    8.4076   11.6268 C.ar    1  LIG1       -0.0489
     26 C           2.3871    3.8784    7.8139 C.ar    1  LIG1       -0.0516
     27 H           3.0855    3.7136    7.2225 H       1  LIG1        0.0624
     28 C           0.2363    4.7841    8.1971 C.ar    1  LIG1       -0.0415
     29 H          -0.5219    5.2316    7.8962 H       1  LIG1        0.0632
     30 C          -0.7428    3.4072   14.7115 C.3     1  LIG1        0.0149
     31 H          -0.7579    2.4574   14.4743 H       1  LIG1        0.0461
     32 C           5.3222    2.0588   14.7595 C.3     1  LIG1        0.0993
     33 H           4.7808    1.3816   15.2149 H       1  LIG1        0.0729
     34 C           3.7914    2.6897    9.5897 C.3     1  LIG1       -0.0092
     35 C          -0.0309    3.5642   16.0234 C.3     1  LIG1       -0.0494
     36 H           0.8526    3.1944   15.9542 H       1  LIG1        0.0245
     37 H          -0.5175    3.1020   16.7102 H       1  LIG1        0.0245
     38 H           0.0292    4.4968   16.2457 H       1  LIG1        0.0245
     39 C           1.9933    8.0087   13.2157 C.3     1  LIG1       -0.0092
     40 C           5.8938    1.4894   13.5090 C.3     1  LIG1       -0.0279
     41 H           5.1820    1.2144   12.9274 H       1  LIG1        0.0265
     42 H           6.4425    0.7304   13.7238 H       1  LIG1        0.0265
     43 H           6.4279    2.1560   13.0683 H       1  LIG1        0.0265
     44 C           2.0474    7.2387   14.5471 C.3     1  LIG1       -0.0559
     45 H           1.2735    7.4536   15.0727 H       1  LIG1        0.0238
     46 H           2.8408    7.4866   15.0280 H       1  LIG1        0.0238
     47 H           2.0628    6.2942   14.3710 H       1  LIG1        0.0238
     48 C           3.4678    1.3523   10.2695 C.3     1  LIG1       -0.0559
     49 H           2.8577    0.8536    9.7206 H       1  LIG1        0.0238
     50 H           3.0677    1.5180   11.1266 H       1  LIG1        0.0238
     51 H           4.2775    0.8492   10.3860 H       1  LIG1        0.0238
     52 C           1.2824    4.5666    7.3360 C.ar    1  LIG1       -0.0489
     53 C           2.0804    9.4988   13.5732 C.3     1  LIG1       -0.0559
     54 H           2.0300   10.0232   12.7712 H       1  LIG1        0.0238
     55 H           2.9123    9.6734   14.0182 H       1  LIG1        0.0238
     56 H           1.3515    9.7306   14.1535 H       1  LIG1        0.0238
     57 C          -1.2035    0.4259   11.6031 C.3     1  LIG1        0.0992
     58 H          -1.1705   -0.4224   12.0919 H       1  LIG1        0.0729
     59 C           6.3691    2.5868   15.6984 C.3     1  LIG1       -0.0279
     60 H           6.8762    3.2736   15.2596 H       1  LIG1        0.0265
     61 H           6.9558    1.8722   15.9584 H       1  LIG1        0.0265
     62 H           5.9443    2.9524   16.4787 H       1  LIG1        0.0265
     63 C          -2.4987    9.5133   11.4335 C.3     1  LIG1       -0.0397
     64 H          -2.2272   10.2872   11.9329 H       1  LIG1        0.0278
     65 H          -3.3582    9.2180   11.7432 H       1  LIG1        0.0278
     66 H          -2.5550    9.7372   10.5018 H       1  LIG1        0.0278
     67 C          -2.6041    0.9462   11.5953 C.3     1  LIG1       -0.0279
     68 H          -2.9035    1.0714   12.4992 H       1  LIG1        0.0265
     69 H          -3.1777    0.3168   11.1518 H       1  LIG1        0.0265
     70 H          -2.6305    1.7864   11.1308 H       1  LIG1        0.0265
     71 C           3.2052    7.6587   12.3499 C.3     1  LIG1       -0.0559
     72 H           3.2305    6.7100   12.2035 H       1  LIG1        0.0238
     73 H           4.0083    7.9354   12.7977 H       1  LIG1        0.0238
     74 H           3.1364    8.1114   11.5060 H       1  LIG1        0.0238
     75 C           4.5666    3.6043   10.5483 C.3     1  LIG1       -0.0559
     76 H           5.3609    3.1548   10.8463 H       1  LIG1        0.0238
     77 H           4.0153    3.8148   11.3052 H       1  LIG1        0.0238
     78 H           4.8079    4.4132   10.0931 H       1  LIG1        0.0238
     79 C          -2.1544    3.9081   14.7811 C.3     1  LIG1       -0.0494
     80 H          -2.1519    4.8488   14.9722 H       1  LIG1        0.0245
     81 H          -2.6260    3.4408   15.4744 H       1  LIG1        0.0245
     82 H          -2.5907    3.7554   13.9386 H       1  LIG1        0.0245
     83 C           1.2392    5.0591    5.9046 C.3     1  LIG1       -0.0397
     84 H           0.4325    5.5594    5.7635 H       1  LIG1        0.0278
     85 H           1.2586    4.3076    5.3074 H       1  LIG1        0.0278
     86 H           1.9984    5.6210    5.7370 H       1  LIG1        0.0278
     87 C           4.7191    2.3767    8.4078 C.3     1  LIG1       -0.0559
     88 H           5.5065    1.9294    8.7289 H       1  LIG1        0.0238
     89 H           4.9705    3.1944    7.9729 H       1  LIG1        0.0238
     90 H           4.2607    1.8106    7.7832 H       1  LIG1        0.0238
     91 C          -0.6323    0.2420   10.2312 C.3     1  LIG1       -0.0279
     92 H          -0.6606    1.0758    9.7583 H       1  LIG1        0.0265
     93 H          -1.1484   -0.4136    9.7541 H       1  LIG1        0.0265
     94 H           0.2766   -0.0572   10.3009 H       1  LIG1        0.0265
@<TRIPOS>BOND
     1    85    83    1
     2    86    83    1
     3    84    83    1
     4    83    52    1
     5    27    26    1
     6    52    26   ar
     7    52    28   ar
     8    90    87    1
     9    26    22   ar
    10    29    28    1
    11    89    87    1
    12    28    14   ar
    13    87    88    1
    14    87    34    1
    15    22    34    1
    16    22    17   ar
    17    14    17   ar
    18    14     2    1
    19    34    48    1
    20    34    75    1
    21    49    48    1
    22    93    91    1
    23    92    91    1
    24    17     4    1
    25    78    75    1
    26    91    94    1
    27    91    57    1
    28    48    51    1
    29    48    50    1
    30    66    63    1
    31    75    76    1
    32    75    77    1
    33     2    18    1
    34    24    23    1
    35    23    18   ar
    36    23    25   ar
    37    70    67    1
    38    69    67    1
    39     4     1    1
    40    18    13   ar
    41    63    25    1
    42    63    65    1
    43    63    64    1
    44    74    71    1
    45    67    57    1
    46    67    68    1
    47    57    58    1
    48    57     6    1
    49    25    20   ar
    50    13     8    1
    51    13    19   ar
    52     8     1    1
    53    72    71    1
    54    20    19   ar
    55    20    21    1
    56     6    12    1
    57    71    73    1
    58    71    39    1
    59    19    39    1
    60     1     5    1
    61     1     3    1
    62     1     9    1
    63    54    53    1
    64    12    15    2
    65    12     5   am
    66    41    40    1
    67    43    40    1
    68    39    53    1
    69    39    44    1
    70     5     7    1
    71     3    16    1
    72    10     9    1
    73    40    42    1
    74    40    32    1
    75    53    55    1
    76    53    56    1
    77     9    30    1
    78    82    79    1
    79    16     7    2
    80    16    11    1
    81    47    44    1
    82    11    32    1
    83    31    30    1
    84    44    46    1
    85    44    45    1
    86    30    79    1
    87    30    35    1
    88    32    33    1
    89    32    59    1
    90    79    80    1
    91    79    81    1
    92    60    59    1
    93    59    61    1
    94    59    62    1
    95    36    35    1
    96    35    38    1
    97    35    37    1
