@<TRIPOS>MOLECULE
?
 47 47 0 0 0
SMALL
GASTEIGER

@<TRIPOS>ATOM
      1 O          -1.1835   11.2401    4.0911 O.2     1  LIG1       -0.2702
      2 O          -2.1571    8.0332    7.7687 O.3     1  LIG1       -0.3774
      3 O          -2.0507    5.3134    6.7651 O.3     1  LIG1       -0.3774
      4 O           0.1640    4.5167    2.3621 O.2     1  LIG1       -0.2702
      5 O          -1.0868    2.0565    1.7835 O.3     2  HOH2       -0.4105
      6 N          -2.1684    9.7221    5.4354 N.am    1  LIG1       -0.3113
      7 N          -0.9869    4.8455    4.2884 N.am    1  LIG1       -0.3113
      8 C          -1.0777    7.6616    3.7027 C.ar    1  LIG1       -0.0375
      9 H          -1.2340    7.4080    4.6048 H       1  LIG1        0.0633
     10 C          -0.7008    6.6982    2.7674 C.ar    1  LIG1        0.0374
     11 C          -0.4871    7.0780    1.4426 C.ar    1  LIG1       -0.0496
     12 H          -0.2232    6.4283    0.8016 H       1  LIG1        0.0625
     13 C          -0.6569    8.3981    1.0545 C.ar    1  LIG1       -0.0603
     14 H          -0.5302    8.6472    0.1460 H       1  LIG1        0.0618
     15 C          -1.0110    9.3543    1.9921 C.ar    1  LIG1       -0.0496
     16 H          -1.1078   10.2615    1.7270 H       1  LIG1        0.0625
     17 C          -1.2263    8.9950    3.3236 C.ar    1  LIG1        0.0374
     18 C          -1.5346   10.0772    4.3126 C.2     1  LIG1        0.2441
     19 C          -2.3716   10.6427    6.5465 C.3     1  LIG1        0.0140
     20 H          -3.3187   10.6021    6.8322 H       1  LIG1        0.0463
     21 H          -2.1880   11.5656    6.2405 H       1  LIG1        0.0463
     22 C          -1.4770   10.3251    7.7391 C.3     1  LIG1       -0.0138
     23 H          -0.5720   10.0961    7.4096 H       1  LIG1        0.0302
     24 H          -1.3967   11.1341    8.3050 H       1  LIG1        0.0302
     25 C          -1.9939    9.1862    8.5834 C.3     1  LIG1        0.0492
     26 H          -1.3539    8.9932    9.3138 H       1  LIG1        0.0560
     27 H          -2.8625    9.4365    8.9893 H       1  LIG1        0.0560
     28 C          -2.6448    6.9183    8.5051 C.3     1  LIG1        0.0710
     29 H          -3.3900    7.2004    9.0909 H       1  LIG1        0.0583
     30 H          -1.9250    6.5473    9.0740 H       1  LIG1        0.0583
     31 C          -3.1217    5.8732    7.5341 C.3     1  LIG1        0.0710
     32 H          -3.5753    5.1492    8.0339 H       1  LIG1        0.0583
     33 H          -3.7844    6.2791    6.9208 H       1  LIG1        0.0583
     34 C          -1.5893    4.0464    7.2288 C.3     1  LIG1        0.0492
     35 H          -2.3295    3.3899    7.2076 H       1  LIG1        0.0560
     36 H          -1.2699    4.1252    8.1629 H       1  LIG1        0.0560
     37 C          -0.4568    3.5772    6.3324 C.3     1  LIG1       -0.0138
     38 H          -0.1711    2.6773    6.6302 H       1  LIG1        0.0302
     39 H           0.3123    4.1890    6.4503 H       1  LIG1        0.0302
     40 C          -0.8014    3.5103    4.8495 C.3     1  LIG1        0.0140
     41 H          -0.0729    3.0482    4.3637 H       1  LIG1        0.0463
     42 H          -1.6313    2.9855    4.7286 H       1  LIG1        0.0463
     43 C          -0.4762    5.2564    3.1252 C.2     1  LIG1        0.2441
     44 H          -2.4726    8.9088    5.4963 H       1  LIG1        0.1490
     45 H          -1.4952    5.3741    4.7586 H       1  LIG1        0.1490
     46 H          -0.6416    2.8200    2.0072 H       0  HOH0        0.2052
     47 H          -1.0727    1.5527    2.5494 H       0  HOH0        0.2052
@<TRIPOS>BOND
     1    14    13    1
     2    12    11    1
     3    13    11   ar
     4    13    15   ar
     5    11    10   ar
     6    16    15    1
     7     5    46    1
     8     5    47    1
     9    15    17   ar
    10     4    43    2
    11    10    43    1
    12    10     8   ar
    13    43     7   am
    14    17     8   ar
    15    17    18    1
    16     8     9    1
    17     1    18    2
    18     7    45    1
    19     7    40    1
    20    18     6   am
    21    41    40    1
    22    42    40    1
    23    40    37    1
    24     6    44    1
    25     6    19    1
    26    21    19    1
    27    37    39    1
    28    37    38    1
    29    37    34    1
    30    19    20    1
    31    19    22    1
    32     3    34    1
    33     3    31    1
    34    33    31    1
    35    35    34    1
    36    34    36    1
    37    23    22    1
    38    31    32    1
    39    31    28    1
    40    22    24    1
    41    22    25    1
    42     2    28    1
    43     2    25    1
    44    28    30    1
    45    28    29    1
    46    25    27    1
    47    25    26    1
