@<TRIPOS>MOLECULE
?
 37 39 0 0 0
SMALL
GASTEIGER

@<TRIPOS>ATOM
      1 C          -0.3011    5.5584    2.0886 C.3     1  LIG1        0.0124
      2 H           0.3659    4.9501    2.4164 H       1  LIG1        0.0434
      3 H          -0.6176    5.2572    1.2343 H       1  LIG1        0.0434
      4 H          -1.0341    5.5930    2.7084 H       1  LIG1        0.0434
      5 C           3.5989    8.4371    2.4936 C.3     1  LIG1        0.0071
      6 H           3.8692    9.3335    2.2835 H       1  LIG1        0.0430
      7 H           4.1429    7.8156    2.0034 H       1  LIG1        0.0430
      8 H           3.7066    8.2835    3.4347 H       1  LIG1        0.0430
      9 O           1.7067    8.8009   -0.1146 O.3     1  LIG1       -0.3704
     10 H          -1.1758   11.6431    3.3350 H       1  LIG1        0.0599
     11 H          -2.1868   11.1193    1.0302 H       1  LIG1        0.0605
     12 H          -0.8791   11.9883    0.8569 H       1  LIG1        0.0605
     13 H           1.9967   10.0240    1.3649 H       1  LIG1        0.0846
     14 H           2.3297    9.1192   -0.4083 H       1  LIG1        0.2119
     15 CL          1.7558    8.5015    8.3566 Cl      1  LIG1       -0.0835
     16 O          -1.6358    7.6991    1.1296 O.2     1  LIG1       -0.2714
     17 N           2.1976    8.2511    2.1266 N.am    1  LIG1       -0.2594
     18 O          -0.5364   10.1215    0.5944 O.3     1  LIG1       -0.3516
     19 N           0.2864    6.8987    1.9486 N.am    1  LIG1       -0.2261
     20 C           1.5877    9.2018    1.2217 C.3     1  LIG1        0.1669
     21 O           2.2065    6.1195    2.8724 O.2     1  LIG1       -0.2519
     22 C           0.1087    9.3023    1.5529 C.3     1  LIG1        0.2134
     23 C          -0.1778    9.9826    2.8933 C.2     1  LIG1        0.0026
     24 C          -0.4956    7.9084    1.5002 C.2     1  LIG1        0.2636
     25 C           0.3396    9.5498    4.2152 C.ar    1  LIG1       -0.0186
     26 C          -0.1692    8.4537    4.8796 C.ar    1  LIG1       -0.0529
     27 H          -0.8209    7.9323    4.4697 H       1  LIG1        0.0624
     28 C           1.6385    7.0541    2.3511 C.2     1  LIG1        0.3127
     29 C           1.2286    8.8835    6.7425 C.ar    1  LIG1        0.0410
     30 C           0.2714    8.1156    6.1441 C.ar    1  LIG1       -0.0428
     31 H          -0.0802    7.3751    6.5823 H       1  LIG1        0.0632
     32 C           1.3154   10.2978    4.8431 C.ar    1  LIG1       -0.0529
     33 H           1.6780   11.0359    4.4080 H       1  LIG1        0.0624
     34 C          -0.9330   11.0300    2.6602 C.2     1  LIG1       -0.0515
     35 C           1.7593    9.9669    6.1047 C.ar    1  LIG1       -0.0428
     36 H           2.4165   10.4788    6.5182 H       1  LIG1        0.0632
     37 C          -1.2363   11.1978    1.2296 C.3     1  LIG1        0.0685
@<TRIPOS>BOND
     1    14     9    1
     2     9    20    1
     3    18    37    1
     4    18    22    1
     5    12    37    1
     6    11    37    1
     7    16    24    2
     8    20    13    1
     9    20    22    1
    10    20    17    1
    11    37    34    1
    12     3     1    1
    13    24    22    1
    14    24    19   am
    15    22    23    1
    16    19     1    1
    17    19    28   am
    18     7     5    1
    19     1     2    1
    20     1     4    1
    21    17    28   am
    22    17     5    1
    23     6     5    1
    24    28    21    2
    25     5     8    1
    26    34    23    2
    27    34    10    1
    28    23    25    1
    29    25    32   ar
    30    25    26   ar
    31    33    32    1
    32    27    26    1
    33    32    35   ar
    34    26    30   ar
    35    35    36    1
    36    35    29   ar
    37    30    31    1
    38    30    29   ar
    39    29    15    1
