@<TRIPOS>MOLECULE
?
 40 42 0 0 0
SMALL
GASTEIGER

@<TRIPOS>ATOM
      1 S          -0.4865    9.5496    7.3358 S.O2    1  LIG1        0.1515
      2 O          -1.1103    8.0928    7.5073 O.3     1  LIG1       -0.3423
      3 O          -0.5089   10.2232    8.5888 O.2     1  LIG1       -0.1313
      4 O          -1.2052   10.0827    6.2287 O.2     1  LIG1       -0.1313
      5 C           1.1871    9.2692    6.8675 C.ar    1  LIG1        0.1358
      6 C           2.1383    9.8201    7.6816 C.ar    1  LIG1       -0.0328
      7 H           1.8794   10.2407    8.4935 H       1  LIG1        0.0638
      8 C           3.4955    9.7681    7.3238 C.ar    1  LIG1       -0.0592
      9 H           4.1577   10.1257    7.9019 H       1  LIG1        0.0618
     10 C           3.8530    9.1979    6.1356 C.ar    1  LIG1       -0.0521
     11 H           4.7693    9.1912    5.8847 H       1  LIG1        0.0624
     12 C           2.8974    8.6163    5.2687 C.ar    1  LIG1        0.0051
     13 C           3.2985    7.9820    4.0424 C.ar    1  LIG1        0.0371
     14 C           2.3787    7.2597    3.3326 C.ar    1  LIG1       -0.0401
     15 H           2.6494    6.7975    2.5486 H       1  LIG1        0.0636
     16 C           1.0370    7.1930    3.7494 C.ar    1  LIG1       -0.0594
     17 H           0.4246    6.6643    3.2519 H       1  LIG1        0.0618
     18 C           0.5908    7.8674    4.8491 C.ar    1  LIG1       -0.0520
     19 H          -0.3297    7.8504    5.0799 H       1  LIG1        0.0624
     20 C          -0.6716    7.2958    8.6027 C.ar    1  LIG1        0.1568
     21 N           4.6673    8.0839    3.6762 N.pl3   1  LIG1       -0.3355
     22 C           1.5195    8.5972    5.6481 C.ar    1  LIG1        0.0122
     23 C           5.0693    9.4140    3.2069 C.3     1  LIG1        0.0004
     24 H           6.0403    9.5122    3.2966 H       1  LIG1        0.0428
     25 H           4.6208   10.0995    3.7455 H       1  LIG1        0.0428
     26 H           4.8151    9.5190    2.2665 H       1  LIG1        0.0428
     27 C           5.1795    7.0323    2.8215 C.3     1  LIG1        0.0004
     28 H           6.1587    7.0707    2.8065 H       1  LIG1        0.0428
     29 H           4.8346    7.1526    1.9123 H       1  LIG1        0.0428
     30 H           4.8921    6.1612    3.1676 H       1  LIG1        0.0428
     31 C           0.2722    6.3314    8.3707 C.ar    1  LIG1       -0.0170
     32 H           0.6678    6.2352    7.5116 H       1  LIG1        0.0655
     33 C           0.6369    5.5024    9.4135 C.ar    1  LIG1       -0.0582
     34 H           1.2963    4.8329    9.2777 H       1  LIG1        0.0619
     35 C           0.0468    5.6416   10.6520 C.ar    1  LIG1       -0.0615
     36 H           0.2887    5.0583   11.3619 H       1  LIG1        0.0618
     37 C          -0.8909    6.6244   10.8613 C.ar    1  LIG1       -0.0582
     38 H          -1.2863    6.7258   11.7196 H       1  LIG1        0.0619
     39 C          -1.2603    7.4654    9.8302 C.ar    1  LIG1       -0.0170
     40 H          -1.9085    8.1463    9.9673 H       1  LIG1        0.0655
@<TRIPOS>BOND
     1    29    27    1
     2    26    23    1
     3    15    14    1
     4    28    27    1
     5    27    30    1
     6    27    21    1
     7    23    24    1
     8    23    21    1
     9    23    25    1
    10    17    16    1
    11    14    16   ar
    12    14    13   ar
    13    21    13    1
    14    16    18   ar
    15    13    12   ar
    16    18    19    1
    17    18    22   ar
    18    12    22   ar
    19    12    10   ar
    20    22     5   ar
    21    11    10    1
    22    10     8   ar
    23     4     1    2
    24     5     1    1
    25     5     6   ar
    26     8     6   ar
    27     8     9    1
    28     1     2    1
    29     1     3    2
    30     2    20    1
    31    32    31    1
    32     6     7    1
    33    31    20   ar
    34    31    33   ar
    35    20    39   ar
    36    34    33    1
    37    33    35   ar
    38    39    40    1
    39    39    37   ar
    40    35    37   ar
    41    35    36    1
    42    37    38    1
