@<TRIPOS>MOLECULE
?
 21 21 0 0 0
SMALL
GASTEIGER

@<TRIPOS>ATOM
      1 C          -0.7912    2.8050    5.9504 C.2     1  LIG1        0.0901
      2 C          -1.4938    4.0742    5.8126 C.2     1  LIG1        0.1880
      3 C          -2.9290    3.6951    5.6225 C.2     1  LIG1        0.2893
      4 C          -4.0395    1.4530    5.5483 C.3     1  LIG1        0.0613
      5 H          -4.7624    1.7966    6.0957 H       1  LIG1        0.0508
      6 H          -3.7905    0.5822    5.8974 H       1  LIG1        0.0508
      7 C          -4.5255    1.2943    4.1310 C.3     1  LIG1        0.0619
      8 H          -5.2964    0.7053    4.1247 H       1  LIG1        0.0573
      9 H          -4.8105    2.1584    3.7949 H       1  LIG1        0.0573
     10 C           0.6627    2.5882    6.1918 C.3     1  LIG1       -0.0185
     11 H           0.8913    2.9047    7.0685 H       1  LIG1        0.0294
     12 H           1.1713    3.0689    5.5345 H       1  LIG1        0.0294
     13 H           0.8606    1.6507    6.1282 H       1  LIG1        0.0294
     14 H          -1.0527    7.0984    5.7802 H       1  LIG1        0.3278
     15 H          -3.1024    1.4592    2.9930 H       1  LIG1        0.2095
     16 N          -2.9019    2.3481    5.6480 N.am    1  LIG1       -0.1853
     17 N          -1.6139    1.8156    5.8413 N.2     1  LIG1       -0.1796
     18 N          -0.8927    5.2172    5.8700 N.2     1  LIG1       -0.0804
     19 O          -3.9320    4.3891    5.4784 O.2     1  LIG1       -0.2664
     20 O          -3.5262    0.7636    3.2649 O.3     1  LIG1       -0.3934
     21 O          -1.7334    6.2581    5.7185 O.2     1  LIG1       -0.4086
@<TRIPOS>BOND
     1    15    20    1
     2    20     7    1
     3     9     7    1
     4     8     7    1
     5     7     4    1
     6    19     3    2
     7    12    10    1
     8     4    16    1
     9     4     6    1
    10     4     5    1
    11     3    16   am
    12     3     2    1
    13    16    17    1
    14    21    14    1
    15    21    18    1
    16     2    18    2
    17     2     1    1
    18    17     1    2
    19     1    10    1
    20    13    10    1
    21    10    11    1
