@<TRIPOS>MOLECULE
?
 60 61 0 0 0
SMALL
GASTEIGER

@<TRIPOS>ATOM
      1 N           5.1888    7.9264    4.5544 N.am    1  LIG1       -0.2214
      2 O           4.0272    4.1575    3.6518 O.2     1  LIG1       -0.2693
      3 O           3.8227    7.7817    6.3611 O.2     1  LIG1       -0.2515
      4 O           6.6159    8.0295    2.7999 O.2     1  LIG1       -0.2693
      5 C           6.6632    2.4954   -0.2896 C.ar    1  LIG1       -0.0249
      6 C           4.4258    5.2897    3.8876 C.2     1  LIG1        0.2591
      7 N           6.6816   -1.0868   -2.4891 N.pl3   1  LIG1       -0.3360
      8 C           7.4687   10.3390    6.4665 C.3     1  LIG1       -0.0545
      9 H           6.8031   10.8704    6.9293 H       1  LIG1        0.0263
     10 H           7.7767   10.8472    5.7005 H       1  LIG1        0.0263
     11 C           5.7968    7.3736    3.4305 C.2     1  LIG1        0.2591
     12 C           8.6397   10.0761    7.3971 C.3     1  LIG1       -0.0652
     13 H           8.3624    9.4862    8.1015 H       1  LIG1        0.0230
     14 H           8.9397   10.9065    7.7745 H       1  LIG1        0.0230
     15 H           9.3568    9.6704    6.9034 H       1  LIG1        0.0230
     16 C           5.8696    0.2265   -0.6177 C.ar    1  LIG1       -0.0401
     17 H           5.3261   -0.4771   -0.3432 H       1  LIG1        0.0636
     18 C           7.5028    1.1604   -2.1403 C.ar    1  LIG1       -0.0401
     19 H           8.0630    1.0847   -2.8786 H       1  LIG1        0.0636
     20 C           6.0494    5.4295    2.0145 C.2     1  LIG1       -0.0445
     21 H           6.6547    5.9807    1.5737 H       1  LIG1        0.0627
     22 N           3.9439    5.9652    5.0086 N.am    1  LIG1       -0.2214
     23 C           6.6647    3.7520    0.4026 C.2     1  LIG1       -0.0546
     24 H           7.2462    4.3972    0.0712 H       1  LIG1        0.0623
     25 C           3.0432    5.2437    5.9217 C.3     1  LIG1        0.0241
     26 H           3.2671    5.4808    6.8354 H       1  LIG1        0.0470
     27 H           3.1886    4.2903    5.8203 H       1  LIG1        0.0470
     28 C           5.4130    6.0018    3.0823 C.2     1  LIG1        0.0995
     29 C           7.4755    2.3270   -1.4195 C.ar    1  LIG1       -0.0528
     30 H           8.0158    3.0334   -1.6902 H       1  LIG1        0.0624
     31 C           5.9241    4.1226    1.4825 C.2     1  LIG1       -0.0603
     32 H           5.3355    3.5162    1.8716 H       1  LIG1        0.0618
     33 C           6.6845    0.0700   -1.7671 C.ar    1  LIG1        0.0292
     34 C           4.2855    7.2580    5.3696 C.2     1  LIG1        0.3179
     35 C           5.6709    9.2324    5.0369 C.3     1  LIG1        0.0241
     36 H           4.9518    9.6996    5.4900 H       1  LIG1        0.0470
     37 H           5.9545    9.7736    4.2839 H       1  LIG1        0.0470
     38 C           6.8361    9.0400    5.9892 C.3     1  LIG1       -0.0369
     39 H           7.5150    8.5055    5.5483 H       1  LIG1        0.0280
     40 H           6.5260    8.5415    6.7610 H       1  LIG1        0.0280
     41 C           5.8669    1.3948    0.0939 C.ar    1  LIG1       -0.0528
     42 H           5.3269    1.4681    0.8484 H       1  LIG1        0.0624
     43 C          -0.7710    5.1033    6.4862 C.3     1  LIG1       -0.0652
     44 H          -0.8957    6.0415    6.6444 H       1  LIG1        0.0230
     45 H          -1.2828    4.6004    7.1236 H       1  LIG1        0.0230
     46 H          -1.0657    4.8873    5.5985 H       1  LIG1        0.0230
     47 C           1.5869    5.5457    5.6830 C.3     1  LIG1       -0.0369
     48 H           1.3587    5.3225    4.7663 H       1  LIG1        0.0280
     49 H           1.4292    6.4945    5.8074 H       1  LIG1        0.0280
     50 C           0.6917    4.7565    6.6276 C.3     1  LIG1       -0.0545
     51 H           0.9697    4.9316    7.5413 H       1  LIG1        0.0263
     52 H           0.8108    3.8088    6.4582 H       1  LIG1        0.0263
     53 C           7.6372   -1.2988   -3.5631 C.3     1  LIG1        0.0004
     54 H           7.4333   -0.7083   -4.2920 H       1  LIG1        0.0428
     55 H           7.5843   -2.2082   -3.8646 H       1  LIG1        0.0428
     56 H           8.5237   -1.1181   -3.2429 H       1  LIG1        0.0428
     57 C           5.7943   -2.1761   -2.1398 C.3     1  LIG1        0.0004
     58 H           6.0985   -2.5891   -1.3292 H       1  LIG1        0.0428
     59 H           5.7902   -2.8250   -2.8478 H       1  LIG1        0.0428
     60 H           4.9058   -1.8359   -2.0124 H       1  LIG1        0.0428
@<TRIPOS>BOND
     1    54    53    1
     2    55    53    1
     3    53    56    1
     4    53     7    1
     5    19    18    1
     6    59    57    1
     7     7    57    1
     8     7    33    1
     9    18    33   ar
    10    18    29   ar
    11    57    60    1
    12    57    58    1
    13    33    16   ar
    14    30    29    1
    15    29     5   ar
    16    16    17    1
    17    16    41   ar
    18     5    41   ar
    19     5    23    1
    20    24    23    1
    21    41    42    1
    22    23    31    2
    23    31    32    1
    24    31    20    1
    25    21    20    1
    26    20    28    2
    27     4    11    2
    28    28    11    1
    29    28     6    1
    30    11     1   am
    31     2     6    2
    32     6    22   am
    33    37    35    1
    34     1    35    1
    35     1    34   am
    36    48    47    1
    37    22    34   am
    38    22    25    1
    39    35    36    1
    40    35    38    1
    41    34     3    2
    42    39    38    1
    43    46    43    1
    44    47    49    1
    45    47    25    1
    46    47    50    1
    47    10     8    1
    48    27    25    1
    49    25    26    1
    50    38     8    1
    51    38    40    1
    52    52    50    1
    53     8     9    1
    54     8    12    1
    55    43    50    1
    56    43    44    1
    57    43    45    1
    58    50    51    1
    59    15    12    1
    60    12    14    1
    61    12    13    1
