@<TRIPOS>MOLECULE
?
 75 74 0 0 0
SMALL
GASTEIGER

@<TRIPOS>ATOM
      1 P           0.8873    0.4430    2.9168 P.3     1  LIG1        0.6235
      2 F          -0.0677    1.7373    2.8657 F       1  LIG1       -0.1039
      3 F           0.1603    0.0034    4.2655 F       1  LIG1       -0.1039
      4 F           1.8444   -0.8258    2.9560 F       1  LIG1       -0.1039
      5 F           1.5996    0.9446    1.5808 F       1  LIG1       -0.1039
      6 F           1.9520    1.2570    3.7679 F       1  LIG1       -0.1039
      7 F          -0.1839   -0.3531    2.0490 F       1  LIG1       -0.1039
      8 O          -0.4419    2.8832   10.5906 O.3     2  LIG2       -0.4897
      9 O           0.2152    3.1749    7.7266 O.3     2  LIG2       -0.3742
     10 O          -0.6398    5.0296    5.7205 O.3     2  LIG2       -0.3752
     11 O          -0.6000    4.4294   15.8986 O.3     2  LIG2       -0.4897
     12 O          -0.7900    6.3570   17.8937 O.3     2  LIG2       -0.3742
     13 C           0.8189    2.6287    9.9495 C.3     2  LIG2        0.1128
     14 H           1.3322    1.9870   10.4653 H       2  LIG2        0.0720
     15 H           1.3317    3.4497    9.8845 H       2  LIG2        0.0720
     16 C           0.5433    2.0827    8.5749 C.3     2  LIG2        0.0818
     17 H           1.3264    1.6210    8.2363 H       2  LIG2        0.0594
     18 H          -0.1939    1.4525    8.6084 H       2  LIG2        0.0594
     19 C          -0.0348    2.7852    6.3803 C.3     2  LIG2        0.0711
     20 H          -0.9633    2.5259    6.2745 H       2  LIG2        0.0583
     21 H           0.5239    2.0297    6.1415 H       2  LIG2        0.0583
     22 C           0.2772    3.9557    5.4990 C.3     2  LIG2        0.0711
     23 H           1.1798    4.2617    5.6779 H       2  LIG2        0.0583
     24 H           0.2316    3.6806    4.5702 H       2  LIG2        0.0583
     25 C          -0.0366    6.2618    5.3489 C.3     2  LIG2        0.0711
     26 H           0.4172    6.1524    4.4982 H       2  LIG2        0.0583
     27 H           0.6268    6.5065    6.0122 H       2  LIG2        0.0583
     28 C          -1.3559    6.6351   19.1679 C.3     2  LIG2        0.0711
     29 H          -0.6554    6.8987   19.7850 H       2  LIG2        0.0583
     30 H          -1.7816    5.8365   19.5166 H       2  LIG2        0.0583
     31 C           0.1281    5.2710   17.9801 C.3     2  LIG2        0.0818
     32 H          -0.2957    4.5124   18.4112 H       2  LIG2        0.0594
     33 H           0.8996    5.5302   18.5076 H       2  LIG2        0.0594
     34 C           0.5577    4.8984   16.5894 C.3     2  LIG2        0.1128
     35 H           0.9303    5.6698   16.1347 H       2  LIG2        0.0720
     36 H           1.2337    4.2041   16.6215 H       2  LIG2        0.0720
     37 C          -0.4581    4.0813   14.5778 C.ar    2  LIG2        0.1208
     38 C           0.7325    4.1422   13.8692 C.ar    2  LIG2       -0.0165
     39 H           1.5060    4.4442   14.2876 H       2  LIG2        0.0655
     40 C           0.7711    3.7497   12.5244 C.ar    2  LIG2       -0.0165
     41 H           1.5694    3.7999   12.0501 H       2  LIG2        0.0655
     42 C          -0.3738    3.2872   11.9005 C.ar    2  LIG2        0.1208
     43 C          -1.5751    3.2274   12.6142 C.ar    2  LIG2       -0.0165
     44 H          -2.3456    2.9130   12.1989 H       2  LIG2        0.0655
     45 C          -1.6216    3.6357   13.9411 C.ar    2  LIG2       -0.0165
     46 H          -2.4261    3.6125   14.4059 H       2  LIG2        0.0655
     47 C          -1.5118    6.7480   11.5745 C.3     3  LIG3        0.0370
     48 C          -1.3463    5.9607    9.2996 C.2     3  LIG3       -0.0068
     49 H          -0.8268    5.7458    8.5584 H       3  LIG3        0.0780
     50 C          -2.8957    6.5761   11.4806 C.2     3  LIG3       -0.0578
     51 H          -3.4399    6.7781   12.2062 H       3  LIG3        0.0594
     52 C          -0.7460    6.4374   10.4456 C.2     3  LIG3       -0.0578
     53 H           0.1767    6.5530   10.4689 H       3  LIG3        0.0594
     54 O          -3.6052    1.0032   10.4270 O.3     3  LIG3       -0.4649
     55 O          -2.5943    1.0137    8.4233 O.2     3  LIG3       -0.2509
     56 N          -2.6827    5.8061    9.2495 N.pl3   3  LIG3       -0.3131
     57 C          -3.1079    3.7180    8.0180 C.3     3  LIG3       -0.0268
     58 H          -2.1562    3.5310    8.0021 H       3  LIG3        0.0286
     59 H          -3.4904    3.3605    7.2017 H       3  LIG3        0.0286
     60 C          -3.3064    5.2225    8.0294 C.3     3  LIG3        0.0167
     61 H          -2.9025    5.6114    7.2383 H       3  LIG3        0.0467
     62 H          -4.2541    5.4275    8.0167 H       3  LIG3        0.0467
     63 C          -3.7264    2.9940    9.2027 C.3     3  LIG3        0.0464
     64 H          -3.4951    3.4583   10.0224 H       3  LIG3        0.0378
     65 H          -4.6926    2.9991    9.1159 H       3  LIG3        0.0378
     66 C          -3.2362    1.5707    9.2756 C.2     3  LIG3        0.3071
     67 C          -3.0649   -0.3354   10.6394 C.3     3  LIG3        0.0896
     68 H          -2.0963   -0.3171   10.5970 H       3  LIG3        0.0694
     69 H          -3.3917   -0.9413    9.9553 H       3  LIG3        0.0694
     70 C          -3.5117   -0.7895   11.9866 C.3     3  LIG3       -0.0306
     71 H          -3.2523   -0.1415   12.6454 H       3  LIG3        0.0262
     72 H          -3.1058   -1.6342   12.1904 H       3  LIG3        0.0262
     73 H          -4.4675   -0.8845   11.9915 H       3  LIG3        0.0262
     74 C          -3.4502    6.1081   10.3136 C.2     3  LIG3       -0.0068
     75 H          -4.3718    5.9979   10.2579 H       3  LIG3        0.0780
@<TRIPOS>BOND
     1     5     1    1
     2     7     1    1
     3     2     1    1
     4     1     4    1
     5     1     6    1
     6     1     3    1
     7    26    25    1
     8    24    22    1
     9    25    10    1
    10    25    27    1
    11    22    23    1
    12    22    10    1
    13    22    19    1
    14    21    19    1
    15    20    19    1
    16    19     9    1
    17    59    57    1
    18    61    60    1
    19     9    16    1
    20    58    57    1
    21    62    60    1
    22    57    60    1
    23    57    63    1
    24    60    56    1
    25    17    16    1
    26    55    66    2
    27    49    48    1
    28    16    18    1
    29    16    13    1
    30    65    63    1
    31    63    66    1
    32    63    64    1
    33    56    48    1
    34    56    74    1
    35    66    54    1
    36    48    52    2
    37    15    13    1
    38    13    14    1
    39    13     8    1
    40    69    67    1
    41    75    74    1
    42    74    50    2
    43    54    67    1
    44    52    53    1
    45    52    47    1
    46     8    42    1
    47    68    67    1
    48    67    70    1
    49    50    47    1
    50    50    51    1
    51    42    40   ar
    52    42    43   ar
    53    70    73    1
    54    70    72    1
    55    70    71    1
    56    41    40    1
    57    44    43    1
    58    40    38   ar
    59    43    45   ar
    60    38    39    1
    61    38    37   ar
    62    45    46    1
    63    45    37   ar
    64    37    11    1
    65    11    34    1
    66    35    34    1
    67    34    36    1
    68    34    31    1
    69    12    31    1
    70    12    28    1
    71    31    32    1
    72    31    33    1
    73    28    30    1
    74    28    29    1
