@<TRIPOS>MOLECULE
7053188.cif
 94 99 0 0 0
SMALL
GASTEIGER

@<TRIPOS>ATOM
      1 O           3.8016   11.4783   14.6562 O.2     1  LIG1       -0.1096
      2 O           2.9949    9.5306   15.2008 O.2     1  LIG1       -0.1096
      3 O           5.5767   11.7879   10.7216 O.2     1  LIG1       -0.1096
      4 O           6.1096    9.7019   10.3330 O.2     1  LIG1       -0.1096
      5 O           0.0626   12.7393   10.4403 O.2     1  LIG1       -0.1096
      6 O          -1.1443   10.9355   10.6392 O.2     1  LIG1       -0.1096
      7 O           2.7613   12.6563    8.5582 O.2     1  LIG1       -0.1096
      8 O           2.6617   10.7564    7.4898 O.2     1  LIG1       -0.1096
      9 O           0.7612    7.3300   13.7640 O.2     1  LIG1       -0.2433
     10 O           4.9371    6.9374    9.7961 O.2     1  LIG1       -0.2433
     11 N           2.7296   10.2599   13.0953 N.pl3   1  LIG1       -0.1565
     12 N           4.3790   10.1590   11.5995 N.pl3   1  LIG1       -0.1565
     13 N           1.0149   10.8510   11.2481 N.pl3   1  LIG1       -0.1565
     14 N           2.7493   10.7534    9.7158 N.pl3   1  LIG1       -0.1565
     15 N           1.4347    8.5847   11.9792 N.am    1  LIG1       -0.2314
     16 N           3.3089    8.4893   10.2153 N.am    1  LIG1       -0.2314
     17 N           3.2452   10.4217   14.4082 N.pl3   1  LIG1        0.1245
     18 N           5.4108   10.5690   10.8374 N.pl3   1  LIG1        0.1245
     19 N          -0.1055   11.5667   10.7108 N.pl3   1  LIG1        0.1245
     20 N           2.6972   11.4423    8.4965 N.pl3   1  LIG1        0.1245
     21 N          -0.7812    8.0162   12.1570 N.am    1  LIG1        0.2493
     22 N          -1.6557    7.4230   12.8579 N.2     1  LIG1        0.2542
     23 N          -2.5029    6.9405   13.3867 N.2     1  LIG1        0.3525
     24 N           3.3868    7.4985    8.1425 N.am    1  LIG1        0.2493
     25 N           4.0041    6.6752    7.4061 N.2     1  LIG1        0.2542
     26 N           4.4648    5.9858    6.6582 N.2     1  LIG1        0.3525
     27 C           3.3527   11.0866   12.0760 C.3     1  LIG1        0.1716
     28 H           3.7590   11.9118   12.4708 H       1  LIG1        0.0779
     29 C           2.7101    8.8611   12.5899 C.3     1  LIG1        0.1545
     30 H           2.8895    8.2178   13.3334 H       1  LIG1        0.0764
     31 C           3.8480    8.7926   11.5190 C.3     1  LIG1        0.1545
     32 H           4.5447    8.1242   11.7803 H       1  LIG1        0.0764
     33 C           2.3144   11.4398   10.9345 C.3     1  LIG1        0.1716
     34 H           2.2460   12.4269   10.7938 H       1  LIG1        0.0779
     35 C           1.0951    9.4217   10.8489 C.3     1  LIG1        0.1545
     36 H           0.2297    9.1244   10.4451 H       1  LIG1        0.0764
     37 C           2.2525    9.3657    9.7716 C.3     1  LIG1        0.1545
     38 H           1.8985    9.0776    8.8828 H       1  LIG1        0.0764
     39 C           0.4877    7.9215   12.7498 C.2     1  LIG1        0.4094
     40 C           3.9842    7.5822    9.4146 C.2     1  LIG1        0.4094
     41 O          -1.2725   12.1870   18.2066 O.2     2  LIG2       -0.1096
     42 O          -2.8182   10.6365   18.2195 O.2     2  LIG2       -0.1096
     43 O           0.8617   11.3085   22.1254 O.2     2  LIG2       -0.1096
     44 O           0.3837    9.2787   22.7244 O.2     2  LIG2       -0.1096
     45 O           1.0134   11.6824   15.8505 O.2     2  LIG2       -0.1096
     46 O          -0.0261    9.9366   15.0536 O.2     2  LIG2       -0.1096
     47 O           3.6902   10.5673   19.5278 O.2     2  LIG2       -0.1096
     48 O           4.0010    8.4080   19.3401 O.2     2  LIG2       -0.1096
     49 O          -1.7608    7.1418   16.1896 O.2     2  LIG2       -0.2433
     50 O           0.9742    6.0665   21.2075 O.2     2  LIG2       -0.2433
     51 N          -0.9382   10.3129   19.3280 N.pl3   2  LIG2       -0.1565
     52 N           0.8232    9.7058   20.5535 N.pl3   2  LIG2       -0.1565
     53 N           0.4936    9.9889   17.2029 N.pl3   2  LIG2       -0.1565
     54 N           2.2603    9.3441   18.3729 N.pl3   2  LIG2       -0.1565
     55 N          -0.9323    8.2736   17.9816 N.am    2  LIG2       -0.2314
     56 N           1.0271    7.5776   19.5028 N.am    2  LIG2       -0.2314
     57 N          -1.7249   11.0930   18.5237 N.pl3   2  LIG2        0.1245
     58 N           0.6449   10.1347   21.9086 N.pl3   2  LIG2        0.1245
     59 N           0.5206   10.5662   15.9423 N.pl3   2  LIG2        0.1245
     60 N           3.3831    9.4406   19.1419 N.pl3   2  LIG2        0.1245
     61 N          -3.1159    7.5369   18.0433 N.am    2  LIG2        0.2493
     62 N          -4.0021    6.9156   17.4016 N.2     2  LIG2        0.2542
     63 N          -4.8589    6.3916   16.9214 N.2     2  LIG2        0.3525
     64 N           2.3235    5.6794   19.3447 N.am    2  LIG2        0.2493
     65 N           2.6457    4.6088   19.9455 N.2     2  LIG2        0.2542
     66 N           2.9934    3.6381   20.3718 N.2     2  LIG2        0.3525
     67 C           0.4545   10.6985   19.5521 C.3     2  LIG2        0.1716
     68 H           0.5306   11.6309   19.9061 H       2  LIG2        0.0779
     69 C          -1.0787    8.8466   19.3071 C.3     2  LIG2        0.1545
     70 H          -1.9445    8.5664   19.7226 H       2  LIG2        0.0764
     71 C           0.1279    8.4413   20.2103 C.3     2  LIG2        0.1545
     72 H          -0.1995    7.9915   21.0417 H       2  LIG2        0.0764
     73 C           1.3511   10.4829   18.2601 C.3     2  LIG2        0.1716
     74 H           1.8300   11.3187   17.9928 H       2  LIG2        0.0779
     75 C           0.3278    8.5306   17.3275 C.3     2  LIG2        0.1545
     76 H           0.3674    8.0851   16.4328 H       2  LIG2        0.0764
     77 C           1.5265    8.0732   18.2419 C.3     2  LIG2        0.1545
     78 H           2.0844    7.3828   17.7817 H       2  LIG2        0.0764
     79 C          -1.9210    7.6109   17.2958 C.2     2  LIG2        0.4094
     80 C           1.4056    6.4057   20.1357 C.2     2  LIG2        0.4094
     81 O           7.4189    9.0789   14.9476 O.3     3  LIG3       -0.4651
     82 O           5.5567    8.7498   13.8436 O.2     3  LIG3       -0.2512
     83 C           7.5311    7.6013   13.1533 C.3     3  LIG3        0.0332
     84 H           7.8205    6.8404   13.6982 H       3  LIG3        0.0342
     85 H           8.3175    8.0734   12.8081 H       3  LIG3        0.0342
     86 H           6.9898    7.2774   12.4020 H       3  LIG3        0.0342
     87 C           6.7231    8.5248   13.9831 C.2     3  LIG3        0.3039
     88 C           6.7019   10.0583   15.7973 C.3     3  LIG3        0.0896
     89 H           6.0127   10.5279   15.2651 H       3  LIG3        0.0694
     90 H           6.2537    9.5914   16.5475 H       3  LIG3        0.0694
     91 C           7.6104   10.9571   16.2837 C.3     3  LIG3       -0.0306
     92 H           8.3559   10.4771   16.6989 H       3  LIG3        0.0262
     93 H           7.1778   11.5294   16.9513 H       3  LIG3        0.0262
     94 H           7.9463   11.5112   15.5496 H       3  LIG3        0.0262
@<TRIPOS>BOND
     1    26    25    2
     2    25    24    2
     3     8    20    2
     4    24    40    1
     5    20     7    2
     6    20    14    1
     7    38    37    1
     8    40    10    2
     9    40    16   am
    10    14    37    1
    11    14    33    1
    12    37    16    1
    13    37    35    1
    14    16    31    1
    15     4    18    2
    16     5    19    2
    17    36    35    1
    18     6    19    2
    19    19    13    1
    20     3    18    2
    21    34    33    1
    22    18    12    1
    23    35    13    1
    24    35    15    1
    25    33    13    1
    26    33    27    1
    27    31    12    1
    28    31    32    1
    29    31    29    1
    30    12    27    1
    31    15    29    1
    32    15    39   am
    33    27    28    1
    34    27    11    1
    35    21    39    1
    36    21    22    2
    37    86    83    1
    38    29    11    1
    39    29    30    1
    40    39     9    2
    41    85    83    1
    42    22    23    2
    43    11    17    1
    44    83    84    1
    45    83    87    1
    46    82    87    2
    47    87    81    1
    48    17     1    2
    49    17     2    2
    50    81    88    1
    51    46    59    2
    52    89    88    1
    53    94    91    1
    54    88    91    1
    55    88    90    1
    56    45    59    2
    57    59    53    1
    58    49    79    2
    59    91    92    1
    60    91    93    1
    61    76    75    1
    62    63    62    2
    63    53    75    1
    64    53    73    1
    65    79    55   am
    66    79    61    1
    67    75    55    1
    68    75    77    1
    69    62    61    2
    70    78    77    1
    71    55    69    1
    72    74    73    1
    73    41    57    2
    74    42    57    2
    75    77    54    1
    76    77    56    1
    77    73    54    1
    78    73    67    1
    79    54    60    1
    80    57    51    1
    81    60    48    2
    82    60    47    2
    83    69    51    1
    84    69    70    1
    85    69    71    1
    86    51    67    1
    87    64    65    2
    88    64    80    1
    89    56    80   am
    90    56    71    1
    91    67    68    1
    92    67    52    1
    93    65    66    2
    94    80    50    2
    95    71    52    1
    96    71    72    1
    97    52    58    1
    98    58    43    2
    99    58    44    2
