@<TRIPOS>MOLECULE
1,4-di[bis(4'-hydroxyphenyl)methyl]benzene ethylacetate solvate
 45 45 0 0 0
SMALL
GASTEIGER

@<TRIPOS>ATOM
      1 C           0.1828    7.4921    8.7799 C.ar    1  LIG1        0.1169
      2 C          -0.1883    7.7766    7.4748 C.ar    1  LIG1       -0.0199
      3 H          -1.0903    7.9972    7.2749 H       1  LIG1        0.0654
      4 C           0.7582    7.7382    6.4620 C.ar    1  LIG1       -0.0542
      5 H           0.4899    7.9256    5.5705 H       1  LIG1        0.0622
      6 C           2.0908    7.4324    6.7192 C.ar    1  LIG1       -0.0357
      7 C           2.4474    7.1530    8.0409 C.ar    1  LIG1       -0.0542
      8 H           3.3507    6.9410    8.2445 H       1  LIG1        0.0622
      9 C           1.5090    7.1790    9.0633 C.ar    1  LIG1       -0.0199
     10 H           1.7718    6.9835    9.9546 H       1  LIG1        0.0654
     11 C           3.1563    7.4341    5.6273 C.3     1  LIG1        0.0308
     12 H           3.7540    6.6542    5.8120 H       1  LIG1        0.0443
     13 C           2.5758    7.2147    4.2338 C.ar    1  LIG1       -0.0357
     14 C           2.1346    8.2880    3.4567 C.ar    1  LIG1       -0.0542
     15 H           2.2161    9.1715    3.7949 H       1  LIG1        0.0622
     16 C           1.5800    8.0903    2.2019 C.ar    1  LIG1       -0.0199
     17 H           1.2800    8.8325    1.6909 H       1  LIG1        0.0654
     18 C           1.4654    6.8062    1.6976 C.ar    1  LIG1        0.1169
     19 C           1.9035    5.7251    2.4440 C.ar    1  LIG1       -0.0199
     20 H           1.8340    4.8446    2.0950 H       1  LIG1        0.0654
     21 C           2.4464    5.9358    3.7100 C.ar    1  LIG1       -0.0542
     22 H           2.7335    5.1908    4.2239 H       1  LIG1        0.0622
     23 C           4.0464    8.6836    5.6603 C.2     1  LIG1       -0.0536
     24 C           3.8483    9.7442    6.5412 C.2     1  LIG1       -0.0613
     25 H           3.1308    9.7105    7.1632 H       1  LIG1        0.0618
     26 C           5.1129    8.7753    4.7661 C.3     1  LIG1       -0.0045
     27 H           5.2685    8.0641    4.1561 H       1  LIG1        0.0358
     28 C           6.0416    4.9629    3.8239 C.3     2  LIG2       -0.0306
     29 H           6.9079    5.3945    3.9767 H       2  LIG2        0.0262
     30 H           6.1162    4.0038    4.0128 H       2  LIG2        0.0262
     31 H           5.3701    5.3614    4.4157 H       2  LIG2        0.0262
     32 C           5.6281    5.1608    2.3932 C.3     2  LIG2        0.0896
     33 H           6.2847    4.7385    1.7846 H       2  LIG2        0.0694
     34 H           4.7408    4.7520    2.2316 H       2  LIG2        0.0694
     35 C           5.1445    7.0104    0.9786 C.2     2  LIG2        0.3039
     36 C           5.1485    8.4973    0.8576 C.3     2  LIG2        0.0332
     37 H           5.2796    8.7486   -0.0801 H       2  LIG2        0.0342
     38 H           5.8765    8.8675    1.3997 H       2  LIG2        0.0342
     39 H           4.2917    8.8531    1.1750 H       2  LIG2        0.0342
     40 H          -0.4977    7.0597   10.4648 H       1  LIG1        0.2921
     41 H           0.8852    5.7728    0.2393 H       1  LIG1        0.2921
     42 O          -0.7909    7.5287    9.7395 O.3     1  LIG1       -0.5068
     43 O           0.9068    6.6474    0.4506 O.3     1  LIG1       -0.5068
     44 O           5.5734    6.5998    2.1605 O.3     2  LIG2       -0.4651
     45 O           4.7765    6.2599    0.0945 O.2     2  LIG2       -0.2512
@<TRIPOS>BOND
     1    37    36    1
     2    45    35    2
     3    41    43    1
     4    43    18    1
     5    36    35    1
     6    36    39    1
     7    36    38    1
     8    35    44    1
     9    17    16    1
    10    18    16   ar
    11    18    19   ar
    12    33    32    1
    13    20    19    1
    14    44    32    1
    15    16    14   ar
    16    34    32    1
    17    32    28    1
    18    19    21   ar
    19    14    15    1
    20    14    13   ar
    21    21    22    1
    22    21    13   ar
    23    28    29    1
    24    28    30    1
    25    28    31    1
    26    27    26    1
    27    13    11    1
    28    26    23    1
    29     5     4    1
    30    11    23    1
    31    11    12    1
    32    11     6    1
    33    23    24    2
    34     4     6   ar
    35     4     2   ar
    36    24    25    1
    37     6     7   ar
    38     3     2    1
    39     2     1   ar
    40     7     8    1
    41     7     9   ar
    42     1     9   ar
    43     1    42    1
    44     9    10    1
    45    42    40    1
