@<TRIPOS>MOLECULE
3-(diethylamino)-6,6-diphenyl-6H-benzo[e]benzo[4,5]oxazolo[3,2-c] [1,3,2]oxazaborinin-7-ium-6-uide
 61 66 0 0 0
SMALL
GASTEIGER

@<TRIPOS>ATOM
      1 O           9.9173    4.0466    2.4704 O.3     1  LIG1        0.0000
      2 O           8.9641    2.1970   -1.0711 O.3     1  LIG1        0.0000
      3 N          10.5067    3.1210    0.2409 N.pl3   1  LIG1        0.0000
      4 N           5.3607    4.2942    3.8601 N.pl3   1  LIG1        0.0000
      5 C           9.2230    2.8411    0.0930 C.3     1  LIG1        0.0000
      6 C          10.1988    2.0745   -1.7131 C.ar    1  LIG1        0.0000
      7 C          10.4590    1.4986   -2.9269 C.ar    1  LIG1        0.0000
      8 H           9.7726    1.1206   -3.4633 H       1  LIG1        0.0000
      9 C          11.7822    1.5012   -3.3237 C.ar    1  LIG1        0.0000
     10 H          12.0170    1.1241   -4.1641 H       1  LIG1        0.0000
     11 C          12.7775    2.0441   -2.5199 C.ar    1  LIG1        0.0000
     12 H          13.6787    2.0192   -2.8195 H       1  LIG1        0.0000
     13 C          12.4911    2.6182   -1.2975 C.ar    1  LIG1        0.0000
     14 H          13.1759    2.9837   -0.7503 H       1  LIG1        0.0000
     15 C          11.1620    2.6396   -0.9023 C.ar    1  LIG1        0.0000
     16 C           8.6251    3.8173    2.2055 C.ar    1  LIG1        0.0000
     17 C           8.2190    3.1674    1.0190 C.ar    1  LIG1        0.0000
     18 C           6.8583    2.8884    0.8288 C.ar    1  LIG1        0.0000
     19 H           6.5819    2.4507    0.0330 H       1  LIG1        0.0000
     20 C           5.9188    3.2316    1.7614 C.ar    1  LIG1        0.0000
     21 H           5.0057    3.0123    1.6179 H       1  LIG1        0.0000
     22 C           6.3076    3.9162    2.9477 C.ar    1  LIG1        0.0000
     23 C           7.6760    4.1881    3.1414 C.ar    1  LIG1        0.0000
     24 H           7.9530    4.6356    3.9311 H       1  LIG1        0.0000
     25 C          12.2594    3.1585    2.1782 C.ar    1  LIG1        0.0000
     26 C          12.1920    1.7678    2.3005 C.ar    1  LIG1        0.0000
     27 H          11.4446    1.3131    1.9279 H       1  LIG1        0.0000
     28 C          13.1681    1.0261    2.9407 C.ar    1  LIG1        0.0000
     29 H          13.0893    0.0811    2.9992 H       1  LIG1        0.0000
     30 C          14.2605    1.6679    3.4962 C.ar    1  LIG1        0.0000
     31 H          14.9362    1.1678    3.9384 H       1  LIG1        0.0000
     32 C          14.3590    3.0372    3.4032 C.ar    1  LIG1        0.0000
     33 H          15.1047    3.4839    3.7862 H       1  LIG1        0.0000
     34 C          13.3753    3.7718    2.7523 C.ar    1  LIG1        0.0000
     35 H          13.4636    4.7159    2.6966 H       1  LIG1        0.0000
     36 C          11.4088    5.4496    0.9365 C.ar    1  LIG1        0.0000
     37 C          12.5929    5.7535    0.2495 C.ar    1  LIG1        0.0000
     38 H          13.2539    5.0778    0.1596 H       1  LIG1        0.0000
     39 C          12.8358    6.9945   -0.3014 C.ar    1  LIG1        0.0000
     40 H          13.6555    7.1612   -0.7521 H       1  LIG1        0.0000
     41 C          11.8961    7.9876   -0.1999 C.ar    1  LIG1        0.0000
     42 H          12.0510    8.8363   -0.5962 H       1  LIG1        0.0000
     43 C          10.7272    7.7424    0.4813 C.ar    1  LIG1        0.0000
     44 H          10.0760    8.4288    0.5632 H       1  LIG1        0.0000
     45 C          10.4964    6.4997    1.0484 C.ar    1  LIG1        0.0000
     46 H           9.6896    6.3571    1.5299 H       1  LIG1        0.0000
     47 C           3.9715    3.8226    3.7607 C.3     1  LIG1        0.0000
     48 H           3.6477    3.9751    2.8378 H       1  LIG1        0.0000
     49 H           3.4070    4.3602    4.3713 H       1  LIG1        0.0000
     50 C           3.8033    2.3499    4.1041 C.3     1  LIG1        0.0000
     51 H           2.8742    2.0825    3.9476 H       1  LIG1        0.0000
     52 H           4.0311    2.2064    5.0464 H       1  LIG1        0.0000
     53 H           4.3975    1.8124    3.5385 H       1  LIG1        0.0000
     54 C           5.7251    5.0662    5.0532 C.3     1  LIG1        0.0000
     55 H           4.9356    5.5842    5.3509 H       1  LIG1        0.0000
     56 H           6.4350    5.7125    4.8116 H       1  LIG1        0.0000
     57 C           6.2139    4.2131    6.2057 C.3     1  LIG1        0.0000
     58 H           6.5206    4.7925    6.9340 H       1  LIG1        0.0000
     59 H           6.9555    3.6488    5.9031 H       1  LIG1        0.0000
     60 H           5.4817    3.6461    6.5268 H       1  LIG1        0.0000
     61 B          11.0563    3.9804    1.4936 B       1  LIG1        0.0000
@<TRIPOS>BOND
     1    10     9    1
     2     8     7    1
     3     9     7   ar
     4     9    11   ar
     5     7     6   ar
     6    12    11    1
     7    11    13   ar
     8     6     2    1
     9     6    15   ar
    10    13    15   ar
    11    13    14    1
    12     2     5    1
    13    15     3    1
    14    40    39    1
    15    42    41    1
    16    39    41   ar
    17    39    37   ar
    18    41    43   ar
    19    19    18    1
    20     5     3    1
    21     5    17    1
    22    38    37    1
    23     3    61    1
    24    37    36   ar
    25    43    44    1
    26    43    45   ar
    27    18    17   ar
    28    18    20   ar
    29    36    45   ar
    30    36    61    1
    31    17    16   ar
    32    45    46    1
    33    61    25    1
    34    61     1    1
    35    21    20    1
    36    20    22   ar
    37    27    26    1
    38    25    26   ar
    39    25    34   ar
    40    16     1    1
    41    16    23   ar
    42    26    28   ar
    43    35    34    1
    44    34    32   ar
    45    48    47    1
    46    28    29    1
    47    28    30   ar
    48    22    23   ar
    49    22     4    1
    50    23    24    1
    51    32    30   ar
    52    32    33    1
    53    30    31    1
    54    53    50    1
    55    47     4    1
    56    47    50    1
    57    47    49    1
    58     4    54    1
    59    51    50    1
    60    50    52    1
    61    56    54    1
    62    54    55    1
    63    54    57    1
    64    59    57    1
    65    57    60    1
    66    57    58    1
