@<TRIPOS>MOLECULE
Dimethylglycine-squaric acid
 52 50 0 0 0
SMALL
GASTEIGER

@<TRIPOS>ATOM
      1 O           6.1583    3.1408   -0.0430 O.2     1  LIG1       -0.2802
      2 O           2.7223    3.8696    2.9121 O.3     1  LIG1       -0.3704
      3 H           2.9958    3.9231    3.8140 H       1  LIG1        0.2114
      4 C           3.7739    3.3784    0.7117 C.2     1  LIG1        0.2488
      5 O           2.9136    3.2571   -0.1974 O.2     1  LIG1       -0.2848
      6 C           3.7411    3.6511    2.1050 C.3     1  LIG1        0.2410
      7 C           5.1754    3.5870    2.2602 C.2     1  LIG1        0.2488
      8 C           5.2616    3.3157    0.7704 C.2     1  LIG1        0.2700
      9 O           5.9744    3.6903    3.1965 O.2     1  LIG1       -0.2848
     10 H           3.4554    2.8181   -1.6211 H       2  LIG2        0.2952
     11 O           1.7788    3.0142   -3.2742 O.2     2  LIG2       -0.2449
     12 O           3.7858    2.4775   -2.4230 O.3     2  LIG2       -0.4769
     13 N           2.4923    2.2198   -5.7817 N.4     2  LIG2        0.2388
     14 H           1.6143    2.1316   -5.5224 H       2  LIG2        0.2033
     15 C           2.8886    2.5330   -3.3686 C.2     2  LIG2        0.3505
     16 C           3.3653    1.8733   -4.6362 C.3     2  LIG2        0.0666
     17 H           4.2540    2.1250   -4.8239 H       2  LIG2        0.0932
     18 H           3.3188    0.9154   -4.4944 H       2  LIG2        0.0932
     19 C           2.6432    3.6433   -6.1860 C.3     2  LIG2       -0.0428
     20 H           2.4871    4.2173   -5.3709 H       2  LIG2        0.0778
     21 H           1.9849    3.8316   -6.9014 H       2  LIG2        0.0778
     22 H           3.5509    3.7335   -6.5949 H       2  LIG2        0.0778
     23 C           2.7361    1.3044   -6.9439 C.3     2  LIG2       -0.0428
     24 H           2.6282    0.3923   -6.6378 H       2  LIG2        0.0778
     25 H           3.6661    1.4712   -7.3001 H       2  LIG2        0.0778
     26 H           2.0649    1.4973   -7.6592 H       2  LIG2        0.0778
     27 O           0.2838    4.0301    5.5247 O.2     3  LIG3       -0.2796
     28 O           3.6480    3.3042    8.5466 O.2     3  LIG3       -0.5006
     29 H           3.4015    3.1712    9.3759 H       3  LIG3        0.2924
     30 O           3.5103    3.9096    5.4145 O.2     3  LIG3       -0.2796
     31 O           0.3518    3.3055    8.6713 O.2     3  LIG3       -0.5006
     32 H           0.7118    3.1797    9.3973 H       3  LIG3        0.2924
     33 C           2.6659    3.4896    7.7152 C.2     3  LIG3        0.2140
     34 C           1.2518    3.4994    7.7724 C.2     3  LIG3        0.2140
     35 C           1.1593    3.8191    6.3439 C.2     3  LIG3        0.2738
     36 C           2.6579    3.7773    6.2994 C.2     3  LIG3        0.2738
     37 O           3.2196    2.9632   11.0134 O.co2   4  LIG4       -0.2403
     38 O           0.9774    2.8667   10.9933 O.co2   4  LIG4       -0.2403
     39 N           3.2821    2.6653   13.7690 N.4     4  LIG4        0.2390
     40 H           3.9696    2.5435   13.2080 H       4  LIG4        0.2034
     41 C           2.1107    2.7867   11.5511 C.2     4  LIG4        0.3997
     42 C           2.0491    2.3571   12.9975 C.3     4  LIG4        0.0710
     43 H           1.9301    1.3731   12.9889 H       4  LIG4        0.0934
     44 H           1.3334    2.7592   13.4815 H       4  LIG4        0.0934
     45 C           3.3110    4.0938   14.2066 C.3     4  LIG4       -0.0428
     46 H           3.2392    4.6619   13.3892 H       4  LIG4        0.0778
     47 H           2.5605    4.2369   14.8209 H       4  LIG4        0.0778
     48 H           4.1256    4.2369   14.6628 H       4  LIG4        0.0778
     49 C           3.4087    1.7373   14.9283 C.3     4  LIG4       -0.0428
     50 H           3.4523    0.8435   14.5804 H       4  LIG4        0.0778
     51 H           4.1833    1.9877   15.4651 H       4  LIG4        0.0778
     52 H           2.6212    1.8373   15.4601 H       4  LIG4        0.0778
@<TRIPOS>BOND
     1    26    23    1
     2    25    23    1
     3    23    24    1
     4    23    13    1
     5    21    19    1
     6    22    19    1
     7    19    13    1
     8    19    20    1
     9    13    14    1
    10    13    16    1
    11    17    16    1
    12    16    18    1
    13    16    15    1
    14    15    11    2
    15    15    12    1
    16    12    10    1
    17     5     4    2
    18     1     8    2
    19     4     8    1
    20     4     6    1
    21     8     7    1
    22     6     7    1
    23     6     2    1
    24     7     9    2
    25     2     3    1
    26    30    36    2
    27    27    35    2
    28    36    35    1
    29    36    33    1
    30    35    34    1
    31    33    34    2
    32    33    28    1
    33    34    31    1
    34    28    29    1
    35    31    32    1
    36    38    41   ar
    37    37    41   ar
    38    41    42    1
    39    43    42    1
    40    42    44    1
    41    42    39    1
    42    40    39    1
    43    46    45    1
    44    39    45    1
    45    39    49    1
    46    45    48    1
    47    45    47    1
    48    50    49    1
    49    49    52    1
    50    49    51    1
