@<TRIPOS>MOLECULE
Sarcosinium hydrogen squarate semihydrate
 25 23 0 0 0
SMALL
GASTEIGER

@<TRIPOS>ATOM
      1 O           1.0078    2.3403   16.7666 O.2     1  LIG1       -0.2848
      2 O          -2.2300    2.4410   16.6668 O.2     1  LIG1       -0.2802
      3 O          -2.1364    0.9856   13.7402 O.2     1  LIG1       -0.2848
      4 O           1.0060    1.0122   13.7632 O.3     1  LIG1       -0.3704
      5 H           1.9218    1.1615   13.9992 H       1  LIG1        0.2114
      6 C           0.1371    2.0120   15.9315 C.2     1  LIG1        0.2488
      7 C          -1.3587    2.0497   15.9154 C.2     1  LIG1        0.2700
      8 C          -1.3013    1.3979   14.5699 C.2     1  LIG1        0.2488
      9 C           0.1221    1.4217   14.6364 C.3     1  LIG1        0.2410
     10 O          -4.7051    1.2930   14.1027 O.3     2  LIG2       -0.4769
     11 H          -3.8179    1.0966   13.9885 H       2  LIG2        0.2952
     12 C          -5.3582    0.9889   13.0036 C.2     2  LIG2        0.3504
     13 O          -4.9005    0.3995   12.0628 O.2     2  LIG2       -0.2449
     14 C          -6.7720    1.5087   13.0460 C.3     2  LIG2        0.0650
     15 H          -7.2413    1.1031   13.7923 H       2  LIG2        0.0932
     16 H          -6.7581    2.4680   13.1868 H       2  LIG2        0.0932
     17 N          -7.4930    1.2103   11.7938 N.4     2  LIG2        0.2328
     18 H          -8.2842    1.7747   11.7444 H       2  LIG2        0.2016
     19 H          -6.9345    1.4068   11.1007 H       2  LIG2        0.2016
     20 C          -7.9507   -0.1883   11.6778 C.3     2  LIG2       -0.0443
     21 H          -8.3667   -0.3189   10.8232 H       2  LIG2        0.0777
     22 H          -8.5844   -0.3759   12.3744 H       2  LIG2        0.0777
     23 H          -7.1986   -0.7792   11.7613 H       2  LIG2        0.0777
     24 O          -1.4166   -0.6156   11.4961 O.3     3  HOH3       -0.2528
     25 H          -1.2671   -0.1010   10.8355 H       0  HOH0        0.2528
@<TRIPOS>BOND
     1    21    20    1
     2    25    24    1
     3    19    17    1
     4    20    23    1
     5    20    17    1
     6    20    22    1
     7    18    17    1
     8    17    14    1
     9    13    12    2
    10    12    14    1
    11    12    10    1
    12    14    16    1
    13    14    15    1
    14     3     8    2
    15     4     5    1
    16     4     9    1
    17    11    10    1
    18     8     9    1
    19     8     7    1
    20     9     6    1
    21     7     6    1
    22     7     2    2
    23     6     1    2
