@<TRIPOS>MOLECULE
?
 35 36 0 0 0
SMALL
GASTEIGER

@<TRIPOS>ATOM
      1 O           1.9791    0.2875    0.8722 O.3     1  LIG1       -0.1164
      2 O           0.6540   -2.9135    3.9620 O.3     1  LIG1       -0.1164
      3 N           1.6186   -0.8009    1.4259 N.4     1  LIG1       -0.1161
      4 N           0.9559   -2.3091    2.8786 N.4     1  LIG1       -0.1161
      5 N           0.9898    3.8665    7.5161 N.1     1  LIG1       -0.1908
      6 C           1.6608   -2.0938    0.6503 C.3     1  LIG1        0.0671
      7 C           0.7588   -2.9782    1.5445 C.3     1  LIG1        0.0671
      8 C           3.1214   -2.5219    0.5984 C.3     1  LIG1       -0.0427
      9 H           3.4480   -2.6551    1.4903 H       1  LIG1        0.0249
     10 H           3.6397   -1.8396    0.1660 H       1  LIG1        0.0249
     11 H           3.1968   -3.3423    0.1039 H       1  LIG1        0.0249
     12 C           1.1211   -1.8756   -0.7565 C.3     1  LIG1       -0.0427
     13 H           0.2009   -1.6061   -0.7068 H       1  LIG1        0.0249
     14 H           1.1893   -2.6935   -1.2555 H       1  LIG1        0.0249
     15 H           1.6326   -1.1908   -1.1923 H       1  LIG1        0.0249
     16 C          -0.7360   -2.8374    1.2352 C.3     1  LIG1       -0.0427
     17 H          -0.9677   -1.9063    1.1945 H       1  LIG1        0.0249
     18 H          -1.2470   -3.2656    1.9262 H       1  LIG1        0.0249
     19 H          -0.9280   -3.2522    0.3906 H       1  LIG1        0.0249
     20 C           1.1670   -4.4400    1.6168 C.3     1  LIG1       -0.0427
     21 H           2.1055   -4.5014    1.8110 H       1  LIG1        0.0249
     22 H           0.9864   -4.8650    0.7745 H       1  LIG1        0.0249
     23 H           0.6676   -4.8783    2.3089 H       1  LIG1        0.0249
     24 C           1.3000   -1.0085    2.7278 C.3     1  LIG1        0.1935
     25 C           1.2684    0.0197    3.7744 C.ar    1  LIG1       -0.0037
     26 C           1.6105    1.3486    3.4842 C.ar    1  LIG1       -0.0540
     27 H           1.8861    1.5794    2.6262 H       1  LIG1        0.0622
     28 C           1.5380    2.3119    4.4642 C.ar    1  LIG1       -0.0429
     29 H           1.7727    3.1888    4.2621 H       1  LIG1        0.0631
     30 C           1.1185    1.9922    5.7581 C.ar    1  LIG1        0.0657
     31 C           0.7839    0.6700    6.0438 C.ar    1  LIG1        0.0356
     32 C           0.8562   -0.3145    5.0728 C.ar    1  LIG1       -0.0400
     33 H           0.6329   -1.1925    5.2805 H       1  LIG1        0.0633
     34 C           1.0442    3.0442    6.7765 C.1     1  LIG1        0.1003
     35 BR          0.2351    0.1933    7.7851 Br      1  LIG1       -0.0490
@<TRIPOS>BOND
     1    14    12    1
     2    15    12    1
     3    12    13    1
     4    12     6    1
     5    11     8    1
     6    10     8    1
     7    19    16    1
     8     8     6    1
     9     8     9    1
    10     6     3    1
    11     6     7    1
    12    22    20    1
    13     1     3    1
    14    17    16    1
    15    16     7    1
    16    16    18    1
    17     3    24    1
    18     7    20    1
    19     7     4    1
    20    20    21    1
    21    20    23    1
    22    27    26    1
    23    24     4    1
    24    24    25    1
    25     4     2    1
    26    26    25   ar
    27    26    28   ar
    28    25    32   ar
    29    29    28    1
    30    28    30   ar
    31    32    33    1
    32    32    31   ar
    33    30    31   ar
    34    30    34    1
    35    31    35    1
    36    34     5    3
