@<TRIPOS>MOLECULE
t-Butyloxycarbonyl-[Leucyl-R-gamma-Leucyl]2-methyl ester
 111 108 0 0 0
SMALL
GASTEIGER

@<TRIPOS>ATOM
      1 O          -0.0237    9.4822   17.1437 O.3     1  LIG1       -0.4447
      2 O          -3.4726   11.6941   13.7598 O.2     1  LIG1       -0.2738
      3 O          -2.1799   10.0662   16.7116 O.2     1  LIG1       -0.2264
      4 N          -4.8859    9.5080   15.6602 N.am    1  LIG1       -0.3040
      5 N          -2.1036    9.9406   13.3340 N.am    1  LIG1       -0.3109
      6 N          -6.3525   11.3265   14.0548 N.am    1  LIG1       -0.3109
      7 O          -8.1541   10.8842   15.3432 O.2     1  LIG1       -0.2738
      8 C          -1.3019   11.7795   14.7374 C.3     1  LIG1        0.1027
      9 N          -0.4617   10.8370   15.4560 N.am    1  LIG1       -0.2698
     10 O          -6.0623    8.0448   14.4158 O.2     1  LIG1       -0.2758
     11 C          -2.3991   11.1086   13.9080 C.2     1  LIG1        0.2337
     12 C          -6.0501   10.1746   16.1994 C.3     1  LIG1        0.0996
     13 C          -3.0262    9.2160   12.4634 C.3     1  LIG1        0.0238
     14 C          -6.9494   10.8220   15.1357 C.2     1  LIG1        0.2336
     15 C          -0.9821   10.1188   16.4631 C.2     1  LIG1        0.4014
     16 C          -4.9743    8.4474   14.8384 C.2     1  LIG1        0.2137
     17 C          -5.0053   10.6964   18.5029 C.3     1  LIG1       -0.0446
     18 C          -5.6087   11.2438   17.2076 C.3     1  LIG1       -0.0236
     19 C          -3.3390    7.8183   12.9884 C.3     1  LIG1       -0.0262
     20 C          -3.6808    7.7711   14.4888 C.3     1  LIG1        0.0256
     21 C          -0.4237   12.6566   13.8296 C.3     1  LIG1       -0.0235
     22 H           0.3155   13.0001   14.3557 H       1  LIG1        0.0290
     23 H          -0.0492   12.0973   13.1300 H       1  LIG1        0.0290
     24 C          -7.0786   11.9620   12.9478 C.3     1  LIG1        0.0239
     25 C          -0.3346    8.5290   18.2278 C.3     1  LIG1        0.1068
     26 C          -6.3630   13.2019   12.4776 C.3     1  LIG1       -0.0321
     27 C          -2.4458    9.1247   11.0290 C.3     1  LIG1       -0.0321
     28 C          -6.0562   10.0587   19.3985 C.3     1  LIG1       -0.0626
     29 H          -6.6989   10.7221   19.6608 H       1  LIG1        0.0232
     30 H          -5.6336    9.6969   20.1814 H       1  LIG1        0.0232
     31 H          -6.5000    9.3545   18.9206 H       1  LIG1        0.0232
     32 C           1.0361    8.0899   18.6751 C.3     1  LIG1       -0.0253
     33 H           1.4912    8.8285   19.0849 H       1  LIG1        0.0268
     34 H           1.5382    7.7861   17.9164 H       1  LIG1        0.0268
     35 H           0.9510    7.3739   19.3101 H       1  LIG1        0.0268
     36 C          -2.1018   10.4344   10.3593 C.3     1  LIG1       -0.0450
     37 C          -4.2806   11.8106   19.2326 C.3     1  LIG1       -0.0626
     38 H          -3.9558   11.4843   20.0743 H       1  LIG1        0.0232
     39 H          -4.8865   12.5406   19.3839 H       1  LIG1        0.0232
     40 H          -3.5417   12.1144   18.7009 H       1  LIG1        0.0232
     41 C          -1.0978    7.3696   17.6691 C.3     1  LIG1       -0.0253
     42 H          -0.6442    7.0325   16.8938 H       1  LIG1        0.0268
     43 H          -1.9813    7.6562   17.4254 H       1  LIG1        0.0268
     44 H          -1.1577    6.6772   18.3318 H       1  LIG1        0.0268
     45 O          -8.7183    7.7163   11.2268 O.3     1  LIG1       -0.4679
     46 C          -1.3085   10.1800    9.0727 C.3     1  LIG1       -0.0626
     47 H          -1.9066    9.8912    8.3804 H       1  LIG1        0.0232
     48 H          -0.6504    9.4994    9.2333 H       1  LIG1        0.0232
     49 H          -0.8712   10.9905    8.8013 H       1  LIG1        0.0232
     50 O          -0.0062    7.8569   13.4641 O.3     2  HOH2        0.0000
     51 C          -7.2025   10.9937   11.7603 C.3     1  LIG1       -0.0244
     52 H          -7.6621   11.4457   11.0349 H       1  LIG1        0.0288
     53 H          -6.3128   10.7661   11.4484 H       1  LIG1        0.0288
     54 C          -7.9450    9.7195   12.0889 C.3     1  LIG1        0.0466
     55 H          -7.5147    9.2944   12.8476 H       1  LIG1        0.0378
     56 H          -8.8502    9.9449   12.3528 H       1  LIG1        0.0378
     57 C          -1.1433   13.8363   13.1743 C.3     1  LIG1       -0.0446
     58 O          -8.6645    7.7700   15.3709 O.3     3  HOH3        0.0000
     59 C          -8.0030    8.7437   10.9629 C.2     1  LIG1        0.3069
     60 C          -6.1176   14.2700   13.5158 C.3     1  LIG1       -0.0450
     61 H          -5.5339   13.8804   14.1988 H       1  LIG1        0.0296
     62 C          -1.0533    9.2278   19.3544 C.3     1  LIG1       -0.0253
     63 H          -1.9064    9.5402   19.0461 H       1  LIG1        0.0268
     64 H          -0.5291    9.9739   19.6553 H       1  LIG1        0.0268
     65 H          -1.1818    8.6138   20.0817 H       1  LIG1        0.0268
     66 C          -3.3348   11.2589   10.0861 C.3     1  LIG1       -0.0626
     67 H          -3.6615   11.6281   10.9093 H       1  LIG1        0.0232
     68 H          -4.0107   10.7017    9.6929 H       1  LIG1        0.0232
     69 H          -3.1145   11.9706    9.4806 H       1  LIG1        0.0232
     70 O          -7.4461    8.8435    9.9273 O.2     1  LIG1       -0.2509
     71 C          -0.2161   14.3946   12.0686 C.3     1  LIG1       -0.0626
     72 H           0.6442   14.5953   12.4433 H       1  LIG1        0.0232
     73 H          -0.6006   15.1954   11.7031 H       1  LIG1        0.0232
     74 H          -0.1185   13.7408   11.3727 H       1  LIG1        0.0232
     75 C          -7.3196   14.7638   14.2006 C.3     1  LIG1       -0.0626
     76 H          -7.8033   14.0231   14.5753 H       1  LIG1        0.0232
     77 H          -7.8803   15.2265   13.5730 H       1  LIG1        0.0232
     78 H          -7.0640   15.3661   14.9039 H       1  LIG1        0.0232
     79 C          -5.3243   15.4208   12.8402 C.3     1  LIG1       -0.0626
     80 H          -5.0538   16.0574   13.5047 H       1  LIG1        0.0232
     81 H          -5.8816   15.8545   12.1886 H       1  LIG1        0.0232
     82 H          -4.5471   15.0612   12.4045 H       1  LIG1        0.0232
     83 C          -1.5960   14.8851   14.1821 C.3     1  LIG1       -0.0626
     84 H          -0.8396   15.1889   14.6879 H       1  LIG1        0.0232
     85 H          -2.2450   14.4998   14.7765 H       1  LIG1        0.0232
     86 H          -1.9892   15.6269   13.7170 H       1  LIG1        0.0232
     87 C          -8.7746    6.6707   10.2300 C.3     1  LIG1        0.0817
     88 H          -7.8874    6.3508   10.0510 H       1  LIG1        0.0661
     89 H          -9.1583    7.0185    9.4215 H       1  LIG1        0.0661
     90 H          -9.3156    5.9472   10.5549 H       1  LIG1        0.0661
     91 H          -4.3824   10.0694   18.3244 H       1  LIG1        0.0296
     92 H          -1.3856    9.5219   13.5121 H       1  LIG1        0.1490
     93 H          -3.7760    9.7259   12.4821 H       1  LIG1        0.0498
     94 H          -6.6041    9.4790   16.6409 H       1  LIG1        0.0594
     95 H          -8.0130   12.0876   13.1946 H       1  LIG1        0.0498
     96 H          -4.1139    7.5145   12.4378 H       1  LIG1        0.0288
     97 H          -4.8914   11.8729   16.8163 H       1  LIG1        0.0290
     98 H           0.3959   10.8746   15.3691 H       1  LIG1        0.1528
     99 H          -5.4932   11.3469   14.0234 H       1  LIG1        0.1490
    100 H          -4.1362    9.6830   16.0281 H       1  LIG1        0.1494
    101 H          -6.3133   11.8514   17.4365 H       1  LIG1        0.0290
    102 H          -1.7918   12.3130   15.3783 H       1  LIG1        0.0596
    103 H          -2.5615    7.2354   12.8106 H       1  LIG1        0.0288
    104 H          -1.7393    8.6739   11.1678 H       1  LIG1        0.0286
    105 H          -2.9694    8.0620   14.9925 H       1  LIG1        0.0359
    106 H          -6.6984   13.6764   11.5739 H       1  LIG1        0.0286
    107 H          -3.7521    6.9241   14.7525 H       1  LIG1        0.0359
    108 H          -1.3243   10.9282   10.8540 H       1  LIG1        0.0296
    109 H          -2.9742    8.5021   10.4109 H       1  LIG1        0.0286
    110 H          -5.5895   12.9357   12.0169 H       1  LIG1        0.0286
    111 H          -1.8020   13.4402   12.4784 H       1  LIG1        0.0296
@<TRIPOS>BOND
     1    47    46    1
     2    49    46    1
     3    46    48    1
     4    46    36    1
     5    89    87    1
     6    69    66    1
     7    68    66    1
     8    70    59    2
     9    88    87    1
    10    66    36    1
    11    66    67    1
    12    87    90    1
    13    87    45    1
    14    36   108    1
    15    36    27    1
    16   109    27    1
    17    59    45    1
    18    59    54    1
    19    27   104    1
    20    27    13    1
    21    52    51    1
    22    74    71    1
    23    53    51    1
    24   106    26    1
    25    73    71    1
    26    51    54    1
    27    51    24    1
    28   110    26    1
    29    71    72    1
    30    71    57    1
    31    54    56    1
    32    54    55    1
    33    81    79    1
    34    82    79    1
    35    96    19    1
    36    13    93    1
    37    13    19    1
    38    13     5    1
    39    26    24    1
    40    26    60    1
    41   111    57    1
    42   103    19    1
    43    79    80    1
    44    79    60    1
    45    24    95    1
    46    24     6    1
    47    19    20    1
    48    23    21    1
    49    57    21    1
    50    57    83    1
    51     5    92    1
    52     5    11   am
    53    60    61    1
    54    60    75    1
    55    77    75    1
    56    86    83    1
    57     2    11    2
    58    21    22    1
    59    21     8    1
    60    11     8    1
    61    99     6    1
    62     6    14   am
    63    83    84    1
    64    83    85    1
    65    75    76    1
    66    75    78    1
    67    10    16    2
    68    20   107    1
    69    20    16    1
    70    20   105    1
    71     8   102    1
    72     8     9    1
    73    16     4   am
    74    14     7    2
    75    14    12    1
    76    98     9    1
    77     9    15   am
    78     4   100    1
    79     4    12    1
    80    12    94    1
    81    12    18    1
    82    15     3    2
    83    15     1    1
    84    97    18    1
    85    42    41    1
    86     1    25    1
    87    18   101    1
    88    18    17    1
    89    43    41    1
    90    41    25    1
    91    41    44    1
    92    34    32    1
    93    25    32    1
    94    25    62    1
    95    91    17    1
    96    17    37    1
    97    17    28    1
    98    32    33    1
    99    32    35    1
   100    40    37    1
   101    31    28    1
   102    63    62    1
   103    37    39    1
   104    37    38    1
   105    62    64    1
   106    62    65    1
   107    28    29    1
   108    28    30    1
