@<TRIPOS>MOLECULE
C17 H16 N2
 18 18 0 0 0
SMALL
GASTEIGER

@<TRIPOS>ATOM
      1 N          10.5651    4.1271   -0.8842 N.3     1  LIG1       -0.2143
      2 C          11.4812    3.9026    2.5370 C.ar    1  LIG1       -0.0566
      3 H          12.0419    4.6442    2.5254 H       1  LIG1        0.0621
      4 C          11.5142    3.0259    3.5937 C.ar    1  LIG1       -0.0614
      5 H          12.0983    3.1791    4.3008 H       1  LIG1        0.0618
      6 C          10.6907    1.9236    3.6144 C.ar    1  LIG1       -0.0617
      7 H          10.7066    1.3395    4.3395 H       1  LIG1        0.0618
      8 C           9.8427    1.6928    2.5572 C.ar    1  LIG1       -0.0614
      9 H           9.2969    0.9395    2.5614 H       1  LIG1        0.0618
     10 C           9.7916    2.5524    1.5000 C.ar    1  LIG1       -0.0566
     11 H           9.2128    2.3865    0.7915 H       1  LIG1        0.0621
     12 C          10.6034    3.6728    1.4848 C.ar    1  LIG1       -0.0215
     13 C          10.5896    4.5793    0.3084 C.3     1  LIG1        0.1137
     14 C          10.6396    5.3198   -1.7643 C.3     1  LIG1        0.0772
     15 C           9.1554    5.4485   -2.4866 C.3     1  LIG1       -0.0416
     16 H           8.4744    5.4975   -1.8114 H       1  LIG1        0.0249
     17 H           9.0011    4.6804   -3.0401 H       1  LIG1        0.0249
     18 H           9.1288    6.2423   -3.0249 H       1  LIG1        0.0249
@<TRIPOS>BOND
     1    17    15    1
     2    18    15    1
     3    15    16    1
     4    15    14    1
     5    14     1    1
     6     1    13    1
     7    13    12    1
     8    11    10    1
     9    12    10   ar
    10    12     2   ar
    11    10     8   ar
    12     3     2    1
    13     2     4   ar
    14     8     9    1
    15     8     6   ar
    16     4     6   ar
    17     4     5    1
    18     6     7    1
