@<TRIPOS>MOLECULE
C14 H9 F4 N O
 58 60 0 0 0
SMALL
GASTEIGER

@<TRIPOS>ATOM
      1 F          -0.0562    9.8602    1.5583 F       1  LIG1       -0.2055
      2 F          -1.2863    1.8632    2.6491 F       1  LIG1       -0.1658
      3 F           0.2993    0.7677    3.6095 F       1  LIG1       -0.1658
      4 F           0.6040    2.8144    3.0332 F       1  LIG1       -0.1658
      5 O           0.0068    6.0337    4.7058 O.2     1  LIG1       -0.2699
      6 N          -1.5008    4.5496    3.9243 N.am    1  LIG1       -0.2810
      7 H          -2.0499    4.3311    3.2714 H       1  LIG1        0.1551
      8 C          -1.0261    6.5507    2.6273 C.ar    1  LIG1        0.0397
      9 C          -0.4794    7.8337    2.6583 C.ar    1  LIG1       -0.0143
     10 H          -0.0440    8.1615    3.4375 H       1  LIG1        0.0654
     11 C          -0.5868    8.6153    1.5301 C.ar    1  LIG1        0.1241
     12 C          -1.2045    8.1885    0.3766 C.ar    1  LIG1       -0.0264
     13 H          -1.2449    8.7456   -0.3911 H       1  LIG1        0.0646
     14 C          -1.7647    6.9230    0.3682 C.ar    1  LIG1       -0.0583
     15 H          -2.2113    6.6158   -0.4118 H       1  LIG1        0.0619
     16 C          -1.6849    6.0997    1.4811 C.ar    1  LIG1       -0.0495
     17 H          -2.0754    5.2331    1.4643 H       1  LIG1        0.0625
     18 C          -1.3673    3.6739    5.0489 C.ar    1  LIG1        0.0453
     19 C          -1.8414    4.0780    6.2895 C.ar    1  LIG1       -0.0399
     20 H          -2.2135    4.9470    6.3959 H       1  LIG1        0.0636
     21 C          -1.7699    3.2161    7.3718 C.ar    1  LIG1       -0.0600
     22 H          -2.1012    3.4927    8.2184 H       1  LIG1        0.0618
     23 C          -1.2197    1.9565    7.2233 C.ar    1  LIG1       -0.0611
     24 H          -1.1757    1.3669    7.9673 H       1  LIG1        0.0618
     25 C          -0.7326    1.5544    5.9918 C.ar    1  LIG1       -0.0483
     26 H          -0.3473    0.6914    5.8938 H       1  LIG1        0.0624
     27 C          -0.8056    2.4087    4.8996 C.ar    1  LIG1        0.0759
     28 C          -0.8035    5.6991    3.8442 C.2     1  LIG1        0.2484
     29 C          -0.2956    1.9617    3.5623 C.3     1  LIG1        0.4191
     30 F           3.6230   -0.0370    6.0251 F       2  LIG2       -0.2055
     31 F           2.6146    7.8754    5.0443 F       2  LIG2       -0.1658
     32 F           4.1446    9.1060    4.1843 F       2  LIG2       -0.1658
     33 F           4.5515    7.0469    4.6301 F       2  LIG2       -0.1658
     34 O           4.0142    3.8054    2.8479 O.2     2  LIG2       -0.2699
     35 N           2.5092    5.3070    3.6218 N.am    2  LIG2       -0.2810
     36 H           1.9367    5.5033    4.2611 H       2  LIG2        0.1551
     37 C           2.9991    3.3500    4.9546 C.ar    2  LIG2        0.0397
     38 C           3.3965    2.0177    4.9179 C.ar    2  LIG2       -0.0143
     39 H           3.7524    1.6371    4.1241 H       2  LIG2        0.0654
     40 C           3.2608    1.2703    6.0652 C.ar    2  LIG2        0.1241
     41 C           2.7866    1.7841    7.2516 C.ar    2  LIG2       -0.0264
     42 H           2.7305    1.2437    8.0301 H       2  LIG2        0.0646
     43 C           2.3941    3.1120    7.2784 C.ar    2  LIG2       -0.0583
     44 H           2.0580    3.4887    8.0829 H       2  LIG2        0.0619
     45 C           2.4895    3.8952    6.1349 C.ar    2  LIG2       -0.0495
     46 H           2.2074    4.8039    6.1563 H       2  LIG2        0.0625
     47 C           2.6561    6.2153    2.5329 C.ar    2  LIG2        0.0453
     48 C           2.2561    5.8621    1.2553 C.ar    2  LIG2       -0.0399
     49 H           1.9289    4.9867    1.0869 H       2  LIG2        0.0636
     50 C           2.3318    6.7815    0.2204 C.ar    2  LIG2       -0.0600
     51 H           2.0600    6.5364   -0.6560 H       2  LIG2        0.0618
     52 C           2.8014    8.0586    0.4646 C.ar    2  LIG2       -0.0611
     53 H           2.8392    8.6900   -0.2434 H       2  LIG2        0.0618
     54 C           3.2167    8.4210    1.7322 C.ar    2  LIG2       -0.0483
     55 H           3.5456    9.2979    1.8937 H       2  LIG2        0.0624
     56 C           3.1514    7.4967    2.7708 C.ar    2  LIG2        0.0759
     57 C           3.2112    4.1594    3.7123 C.2     2  LIG2        0.2484
     58 C           3.6136    7.8770    4.1433 C.3     2  LIG2        0.4191
@<TRIPOS>BOND
     1    51    50    1
     2    15    14    1
     3    13    12    1
     4    53    52    1
     5    50    52   ar
     6    50    48   ar
     7    14    12   ar
     8    14    16   ar
     9    12    11   ar
    10    52    54   ar
    11    49    48    1
    12    48    47   ar
    13    17    16    1
    14    16     8   ar
    15    11     1    1
    16    11     9   ar
    17    54    55    1
    18    54    56   ar
    19    47    56   ar
    20    47    35    1
    21     8     9   ar
    22     8    28    1
    23     2    29    1
    24     9    10    1
    25    56    58    1
    26    34    57    2
    27     4    29    1
    28     7     6    1
    29    29     3    1
    30    29    27    1
    31    35    57   am
    32    35    36    1
    33    57    37    1
    34    28     6   am
    35    28     5    2
    36     6    18    1
    37    39    38    1
    38    58    32    1
    39    58    33    1
    40    58    31    1
    41    27    18   ar
    42    27    25   ar
    43    38    37   ar
    44    38    40   ar
    45    37    45   ar
    46    18    19   ar
    47    26    25    1
    48    25    23   ar
    49    30    40    1
    50    40    41   ar
    51    45    46    1
    52    45    43   ar
    53    19    20    1
    54    19    21   ar
    55    23    21   ar
    56    23    24    1
    57    41    43   ar
    58    41    42    1
    59    43    44    1
    60    21    22    1
