@<TRIPOS>MOLECULE
2'-(4-fluorophenyl)-1'-nitro-1',2',5',6',7',7a'-hexahydrospiro[indeno[1,2-b]quinoxaline-11,3'-pyrrolizine]
 55 61 0 0 0
SMALL
GASTEIGER

@<TRIPOS>ATOM
      1 F          -1.1538   -4.6891    4.0754 F       1  LIG1       -0.2055
      2 O           3.2422    0.6660    7.3622 O.2     1  LIG1       -0.1314
      3 O           3.5968   -1.4086    6.9742 O.2     1  LIG1       -0.1314
      4 N           4.8443    0.3168    3.3645 N.3     1  LIG1       -0.2820
      5 N           1.9303    0.9989    2.5979 N.ar    1  LIG1       -0.2457
      6 N           2.0962    0.2989   -0.1835 N.ar    1  LIG1       -0.2433
      7 N           3.3642   -0.2768    6.6053 N.pl3   1  LIG1        0.0277
      8 C           3.8097   -0.6528    2.9346 C.3     1  LIG1        0.1016
      9 C           3.2893   -1.2465    4.2797 C.3     1  LIG1        0.0410
     10 C           3.2233    0.0075    5.1403 C.3     1  LIG1        0.1347
     11 C           4.3647    0.9378    4.6176 C.3     1  LIG1        0.0393
     12 C           5.6216    1.0969    5.4877 C.3     1  LIG1       -0.0340
     13 C           6.7748    0.8353    4.5409 C.3     1  LIG1       -0.0387
     14 C           6.1979   -0.2076    3.6187 C.3     1  LIG1        0.0005
     15 C           4.3121   -1.6413    1.8885 C.ar    1  LIG1       -0.0114
     16 C           5.1748   -2.7174    2.0358 C.ar    1  LIG1       -0.0558
     17 C           5.5196   -3.4549    0.9125 C.ar    1  LIG1       -0.0614
     18 C           5.0196   -3.1296   -0.3408 C.ar    1  LIG1       -0.0611
     19 C           4.1382   -2.0866   -0.4997 C.ar    1  LIG1       -0.0522
     20 C           3.7787   -1.3502    0.6239 C.ar    1  LIG1        0.0075
     21 C           2.8245   -0.2536    0.7518 C.ar    1  LIG1        0.0954
     22 C           2.7598    0.1157    2.1294 C.ar    1  LIG1        0.0932
     23 C           1.1219    1.5956    1.6446 C.ar    1  LIG1        0.0896
     24 C           0.1786    2.5553    2.0497 C.ar    1  LIG1       -0.0342
     25 C          -0.6240    3.1648    1.1215 C.ar    1  LIG1       -0.0596
     26 C          -0.5154    2.8421   -0.2340 C.ar    1  LIG1       -0.0596
     27 C           0.3855    1.9150   -0.6563 C.ar    1  LIG1       -0.0342
     28 C           1.2267    1.2593    0.2716 C.ar    1  LIG1        0.0899
     29 C           2.0634   -2.1257    4.2191 C.ar    1  LIG1       -0.0394
     30 C           0.7682   -1.6619    4.3911 C.ar    1  LIG1       -0.0554
     31 C          -0.3173   -2.5237    4.3530 C.ar    1  LIG1       -0.0262
     32 C          -0.0962   -3.8395    4.1194 C.ar    1  LIG1        0.1234
     33 C           1.1565   -4.3428    3.9320 C.ar    1  LIG1       -0.0262
     34 C           2.2311   -3.4817    3.9922 C.ar    1  LIG1       -0.0554
     35 H           4.0138   -1.7987    4.6422 H       1  LIG1        0.0397
     36 H           2.3617    0.4496    4.9875 H       1  LIG1        0.0617
     37 H           3.9945    1.8234    4.4190 H       1  LIG1        0.0486
     38 H           5.6744    1.9927    5.8567 H       1  LIG1        0.0281
     39 H           5.6198    0.4573    6.2155 H       1  LIG1        0.0281
     40 H           7.0211    1.6385    4.0553 H       1  LIG1        0.0278
     41 H           7.5502    0.4976    5.0146 H       1  LIG1        0.0278
     42 H           6.7098   -0.2750    2.7977 H       1  LIG1        0.0427
     43 H           6.1643   -1.0773    4.0467 H       1  LIG1        0.0427
     44 H           5.5152   -2.9402    2.8716 H       1  LIG1        0.0621
     45 H           6.0956   -4.1798    1.0012 H       1  LIG1        0.0618
     46 H           5.2843   -3.6241   -1.0826 H       1  LIG1        0.0618
     47 H           3.7908   -1.8788   -1.3378 H       1  LIG1        0.0624
     48 H           0.0989    2.7771    2.9493 H       1  LIG1        0.0639
     49 H          -1.2470    3.7996    1.3957 H       1  LIG1        0.0618
     50 H          -1.0642    3.2652   -0.8532 H       1  LIG1        0.0618
     51 H           0.4490    1.7108   -1.5610 H       1  LIG1        0.0639
     52 H           0.6245   -0.7545    4.5349 H       1  LIG1        0.0621
     53 H          -1.1813   -2.2054    4.4856 H       1  LIG1        0.0646
     54 H           1.2835   -5.2486    3.7656 H       1  LIG1        0.0646
     55 H           3.0900   -3.8195    3.8778 H       1  LIG1        0.0621
@<TRIPOS>BOND
     1    51    27    1
     2    47    19    1
     3    46    18    1
     4    50    26    1
     5    27    26   ar
     6    27    28   ar
     7    19    18   ar
     8    19    20   ar
     9    18    17   ar
    10    26    25   ar
    11     6    28   ar
    12     6    21   ar
    13    28    23   ar
    14    20    21    1
    15    20    15   ar
    16    21    22   ar
    17    17    45    1
    18    17    16   ar
    19    25    49    1
    20    25    24   ar
    21    23    24   ar
    22    23     5   ar
    23    15    16   ar
    24    15     8    1
    25    16    44    1
    26    24    48    1
    27    22     5   ar
    28    22     8    1
    29    42    14    1
    30     8     4    1
    31     8     9    1
    32     4    14    1
    33     4    11    1
    34    14    43    1
    35    14    13    1
    36    54    33    1
    37    55    34    1
    38    33    34   ar
    39    33    32   ar
    40    34    29   ar
    41    40    13    1
    42     1    32    1
    43    32    31   ar
    44    29     9    1
    45    29    30   ar
    46     9    35    1
    47     9    10    1
    48    31    30   ar
    49    31    53    1
    50    30    52    1
    51    37    11    1
    52    13    41    1
    53    13    12    1
    54    11    10    1
    55    11    12    1
    56    36    10    1
    57    10     7    1
    58    12    38    1
    59    12    39    1
    60     7     3    2
    61     7     2    2
