@<TRIPOS>MOLECULE
?
 61 65 0 0 0
SMALL
GASTEIGER

@<TRIPOS>ATOM
      1 BR         -0.8307    4.7882   10.1853 Br      1  LIG1       -0.0503
      2 O          -0.7804    1.8488    2.4053 O.2     1  LIG1       -0.2187
      3 N           0.3269    3.0061    4.0459 N.am    1  LIG1        0.0458
      4 N           0.6805    0.7050    3.7477 N.am    1  LIG1       -0.2011
      5 N           1.6317    4.8134    4.6226 N.pl3   1  LIG1       -0.1538
      6 C          -0.0208    4.8382    8.4680 C.ar    1  LIG1        0.0181
      7 C           3.3666    8.3625    3.1425 C.ar    1  LIG1       -0.0615
      8 H           3.7626    9.1364    2.8142 H       1  LIG1        0.0618
      9 C           0.4149   -2.9151    2.9301 C.ar    1  LIG1       -0.0600
     10 H           0.2797   -3.7212    3.3718 H       1  LIG1        0.0618
     11 C           1.3465    3.7352    3.7906 C.2     1  LIG1        0.3264
     12 C           1.7726    6.5666    2.9139 C.ar    1  LIG1       -0.0165
     13 H           1.0875    6.1589    2.4354 H       1  LIG1        0.0658
     14 C           2.6873    0.5795    7.4538 C.ar    1  LIG1       -0.0616
     15 H           3.1309    0.5548    8.2701 H       1  LIG1        0.0618
     16 C           0.6327    0.6175    6.1984 C.ar    1  LIG1       -0.0398
     17 H          -0.2971    0.6172    6.1747 H       1  LIG1        0.0636
     18 C           2.3459    3.4652    2.7134 C.ar    1  LIG1        0.0645
     19 C           0.8681    3.8408    8.1126 C.ar    1  LIG1       -0.0439
     20 H           1.0958    3.1746    8.7197 H       1  LIG1        0.0630
     21 C           2.8887    2.7893    0.4606 C.ar    1  LIG1       -0.0610
     22 H           2.6250    2.5946   -0.4094 H       1  LIG1        0.0618
     23 C           3.6962    3.4061    3.0535 C.ar    1  LIG1       -0.0470
     24 H           3.9667    3.6277    3.9150 H       1  LIG1        0.0626
     25 C           1.0647    4.8425    5.9409 C.ar    1  LIG1        0.1265
     26 C           4.6419    3.0168    2.1108 C.ar    1  LIG1       -0.0610
     27 H           5.5413    2.9641    2.3435 H       1  LIG1        0.0618
     28 C           3.2102    6.6511    4.8408 C.ar    1  LIG1       -0.0165
     29 H           3.4973    6.2928    5.6493 H       1  LIG1        0.0658
     30 C           4.2324    2.7072    0.8185 C.ar    1  LIG1       -0.0617
     31 H           4.8616    2.4428    0.1870 H       1  LIG1        0.0618
     32 C           1.9448    3.1634    1.4098 C.ar    1  LIG1       -0.0470
     33 H           1.0454    3.2126    1.1766 H       1  LIG1        0.0626
     34 C           2.2094    6.0131    4.1092 C.ar    1  LIG1        0.1264
     35 C           1.4146    3.8485    6.8378 C.ar    1  LIG1       -0.0154
     36 H           2.0162    3.1859    6.5857 H       1  LIG1        0.0658
     37 C           3.4088    0.6361    6.2690 C.ar    1  LIG1       -0.0600
     38 H           4.3387    0.6460    6.2940 H       1  LIG1        0.0618
     39 C           0.0458    1.8502    3.3096 C.2     1  LIG1        0.4450
     40 C           1.3027    0.5600    7.4132 C.ar    1  LIG1       -0.0600
     41 H           0.8183    0.5078    8.2056 H       1  LIG1        0.0618
     42 C           2.3591    7.7312    2.4319 C.ar    1  LIG1       -0.0579
     43 H           2.0730    8.0895    1.6231 H       1  LIG1        0.0619
     44 C          -0.3568    5.8510    7.5936 C.ar    1  LIG1       -0.0439
     45 H          -0.9491    6.5202    7.8526 H       1  LIG1        0.0630
     46 C           3.7754    7.8201    4.3573 C.ar    1  LIG1       -0.0579
     47 H           4.4374    8.2480    4.8515 H       1  LIG1        0.0619
     48 C           0.4027   -1.7202    3.6447 C.ar    1  LIG1       -0.0398
     49 H           0.2403   -1.7280    4.5597 H       1  LIG1        0.0636
     50 C           0.2018    5.8586    6.3212 C.ar    1  LIG1       -0.0154
     51 H          -0.0033    6.5433    5.7267 H       1  LIG1        0.0658
     52 C           0.6277   -2.9044    1.5620 C.ar    1  LIG1       -0.0616
     53 H           0.6185   -3.7005    1.0831 H       1  LIG1        0.0618
     54 C           0.8672   -0.5073    1.6213 C.ar    1  LIG1       -0.0398
     55 H           1.0333    0.2952    1.1814 H       1  LIG1        0.0636
     56 C           0.8529   -1.7023    0.9084 C.ar    1  LIG1       -0.0600
     57 H           0.9955   -1.6950   -0.0113 H       1  LIG1        0.0618
     58 C           0.6326   -0.5155    2.9910 C.ar    1  LIG1        0.0449
     59 C           2.7530    0.6783    5.0465 C.ar    1  LIG1       -0.0398
     60 H           3.2398    0.7076    4.2551 H       1  LIG1        0.0636
     61 C           1.3696    0.6759    5.0134 C.ar    1  LIG1        0.0449
@<TRIPOS>BOND
     1    22    21    1
     2    57    56    1
     3    31    30    1
     4    21    30   ar
     5    21    32   ar
     6    30    26   ar
     7    56    52   ar
     8    56    54   ar
     9    53    52    1
    10    33    32    1
    11    55    54    1
    12    32    18   ar
    13    52     9   ar
    14    54    58   ar
    15    43    42    1
    16    26    27    1
    17    26    23   ar
    18     2    39    2
    19    42    12   ar
    20    42     7   ar
    21    13    12    1
    22    18    23   ar
    23    18    11    1
    24     8     7    1
    25    12    34   ar
    26     9    10    1
    27     9    48   ar
    28    58    48   ar
    29    58     4    1
    30    23    24    1
    31     7    46   ar
    32    39     4   am
    33    39     3    1
    34    48    49    1
    35     4    61    1
    36    11     3    2
    37    11     5    1
    38    34     5    1
    39    34    28   ar
    40    60    59    1
    41    46    28   ar
    42    46    47    1
    43     5    25    1
    44    28    29    1
    45    61    59   ar
    46    61    16   ar
    47    59    37   ar
    48    51    50    1
    49    25    50   ar
    50    25    35   ar
    51    17    16    1
    52    16    40   ar
    53    37    38    1
    54    37    14   ar
    55    50    44   ar
    56    36    35    1
    57    35    19   ar
    58    40    14   ar
    59    40    41    1
    60    14    15    1
    61    44    45    1
    62    44     6   ar
    63    19     6   ar
    64    19    20    1
    65     6     1    1
