@<TRIPOS>MOLECULE
(E)-1-(2-aminophenyl)-3-(3-bromo-5-hydroyphenyl)-prop-2-en-1-one
 31 32 0 0 0
SMALL
GASTEIGER

@<TRIPOS>ATOM
      1 BR          5.0311    5.7616    4.2438 Br      1  LIG1       -0.0503
      2 C           0.9925    4.7249    2.1899 C.ar    1  LIG1        0.1240
      3 C           3.4338   -0.5489   -0.0188 C.ar    1  LIG1        0.0423
      4 O          -0.1904    4.3783    1.6144 O.3     1  LIG1       -0.5062
      5 O           1.4178    0.5473   -0.5009 O.2     1  LIG1       -0.2872
      6 C           5.2904   -2.6205   -0.3192 C.ar    1  LIG1       -0.0600
      7 H           5.9101   -3.3055   -0.4268 H       1  LIG1        0.0618
      8 C           3.1006   -1.7047   -0.7823 C.ar    1  LIG1        0.0355
      9 C           2.4929    0.5517    0.1263 C.2     1  LIG1        0.1878
     10 C           4.7127   -0.5001    0.5797 C.ar    1  LIG1       -0.0492
     11 H           4.9421    0.2434    1.0897 H       1  LIG1        0.0625
     12 C           1.8887    2.6156    1.2822 C.2     1  LIG1       -0.0474
     13 H           1.0430    2.4817    0.9177 H       1  LIG1        0.0626
     14 C           2.0609    3.8216    2.0835 C.ar    1  LIG1        0.0176
     15 N           1.9086   -1.8533   -1.4041 N.pl3   1  LIG1       -0.3574
     16 C           3.3880    5.3275    3.3970 C.ar    1  LIG1        0.0187
     17 C           2.3467    6.2329    3.4773 C.ar    1  LIG1       -0.0443
     18 C           1.1413    5.9190    2.8764 C.ar    1  LIG1       -0.0185
     19 H           0.4277    6.5126    2.9338 H       1  LIG1        0.0654
     20 C           4.0609   -2.7251   -0.9080 C.ar    1  LIG1       -0.0404
     21 C           2.7953    1.6900    1.0130 C.2     1  LIG1       -0.0136
     22 H           3.6410    1.7584    1.3910 H       1  LIG1        0.0656
     23 C           3.2649    4.1411    2.7169 C.ar    1  LIG1       -0.0371
     24 H           3.9827    3.5503    2.6777 H       1  LIG1        0.0636
     25 C           5.6252   -1.5059    0.4362 C.ar    1  LIG1       -0.0610
     26 H           6.4606   -1.4445    0.8398 H       1  LIG1        0.0618
     27 H          -0.5511    5.0290    1.3357 H       1  LIG1        0.2922
     28 H           1.6936   -2.6017   -1.6596 H       1  LIG1        0.1423
     29 H           1.3350   -1.2834   -1.2428 H       1  LIG1        0.1423
     30 H           2.4237    7.0378    3.9205 H       1  LIG1        0.0630
     31 H           3.8509   -3.4666   -1.3960 H       1  LIG1        0.0636
@<TRIPOS>BOND
     1    28    15    1
     2    15    29    1
     3    15     8    1
     4    31    20    1
     5    20     8   ar
     6    20     6   ar
     7     8     3   ar
     8     5     9    2
     9     7     6    1
    10     6    25   ar
    11     3     9    1
    12     3    10   ar
    13     9    21    1
    14    25    10   ar
    15    25    26    1
    16    10    11    1
    17    13    12    1
    18    21    12    2
    19    21    22    1
    20    12    14    1
    21    27     4    1
    22     4     2    1
    23    14     2   ar
    24    14    23   ar
    25     2    18   ar
    26    24    23    1
    27    23    16   ar
    28    18    19    1
    29    18    17   ar
    30    16    17   ar
    31    16     1    1
    32    17    30    1
