@<TRIPOS>MOLECULE
?
 70 70 0 0 0
SMALL
GASTEIGER

@<TRIPOS>ATOM
      1 S           6.4694    1.0782    1.3964 S.3     1  LIG1       -0.1237
      2 N           3.7908   -0.2357    4.8207 N.am    1  LIG1       -0.2937
      3 N           8.7515   -2.4517   -0.2399 N.am    1  LIG1       -0.2940
      4 N           8.8290   -1.5414   -3.1917 N.3     1  LIG1       -0.3026
      5 O          11.2739   -2.3344    2.4164 O.3     1  LIG1       -0.3738
      6 O          10.6053   -3.6958    0.1656 O.2     1  LIG1       -0.2731
      7 O           5.4535   -0.4574    6.3241 O.2     1  LIG1       -0.2731
      8 O           3.8478   -1.3059    8.3203 O.3     1  LIG1       -0.3738
      9 C           6.2056   -0.6168    1.8935 C.ar    1  LIG1        0.0173
     10 C           6.8630   -1.6667    1.2159 C.ar    1  LIG1       -0.0161
     11 C           6.6375   -2.9775    1.6026 C.ar    1  LIG1       -0.0523
     12 H           7.0466   -3.6811    1.1120 H       1  LIG1        0.0624
     13 C           5.8211   -3.2921    2.6978 C.ar    1  LIG1       -0.0413
     14 C           5.2472   -2.2384    3.3932 C.ar    1  LIG1       -0.0523
     15 H           4.7261   -2.4314    4.1624 H       1  LIG1        0.0624
     16 C           5.4033   -0.9088    3.0099 C.ar    1  LIG1       -0.0161
     17 C           5.6026   -4.7583    3.0851 C.3     1  LIG1       -0.0127
     18 C           4.7170   -4.9041    4.3320 C.3     1  LIG1       -0.0560
     19 H           4.6093   -5.8542    4.5464 H       1  LIG1        0.0238
     20 H           3.8379   -4.5067    4.1563 H       1  LIG1        0.0238
     21 H           5.1386   -4.4439    5.0871 H       1  LIG1        0.0238
     22 C           4.9392   -5.5052    1.9193 C.3     1  LIG1       -0.0560
     23 H           5.5300   -5.4836    1.1397 H       1  LIG1        0.0238
     24 H           4.0878   -5.0739    1.6957 H       1  LIG1        0.0238
     25 H           4.7752   -6.4368    2.1780 H       1  LIG1        0.0238
     26 C           6.9611   -5.4157    3.3788 C.3     1  LIG1       -0.0560
     27 H           7.5167   -5.3910    2.5712 H       1  LIG1        0.0238
     28 H           6.8221   -6.3463    3.6525 H       1  LIG1        0.0238
     29 H           7.4108   -4.9277    4.1010 H       1  LIG1        0.0238
     30 C           7.8698   -1.3448    0.1127 C.3     1  LIG1        0.0409
     31 H           7.3732   -1.0644   -0.6973 H       1  LIG1        0.0514
     32 H           8.4241   -0.5785    0.4055 H       1  LIG1        0.0514
     33 C           8.4187   -3.2745   -1.4042 C.3     1  LIG1        0.0278
     34 H           7.4486   -3.2035   -1.5851 H       1  LIG1        0.0477
     35 H           8.6211   -4.2216   -1.2011 H       1  LIG1        0.0477
     36 C           9.1895   -2.8550   -2.6471 C.3     1  LIG1        0.0145
     37 H          10.1553   -2.8504   -2.4299 H       1  LIG1        0.0442
     38 H           9.0452   -3.5370   -3.3515 H       1  LIG1        0.0442
     39 C           7.5162   -1.5943   -3.8500 C.3     1  LIG1        0.0114
     40 H           6.8363   -1.8776   -3.1886 H       1  LIG1        0.0439
     41 H           7.5428   -2.2770   -4.5679 H       1  LIG1        0.0439
     42 C           2.3714   -0.2599    4.4524 C.3     1  LIG1        0.0309
     43 H           2.1947    0.4612    3.7969 H       1  LIG1        0.0480
     44 H           1.8234   -0.0803    5.2591 H       1  LIG1        0.0480
     45 C           4.7493    0.2122    3.8095 C.3     1  LIG1        0.0409
     46 H           5.4592    0.7360    4.2577 H       1  LIG1        0.0514
     47 H           4.2842    0.8184    3.1794 H       1  LIG1        0.0514
     48 C           9.8630   -2.7725    0.4768 C.2     1  LIG1        0.2416
     49 C          10.1358   -1.9134    1.7092 C.3     1  LIG1        0.1235
     50 H          10.2599   -0.9728    1.4284 H       1  LIG1        0.0656
     51 H           9.3493   -1.9497    2.3101 H       1  LIG1        0.0656
     52 C          11.0203   -3.4289    3.2667 C.3     1  LIG1        0.0371
     53 H          10.2654   -3.2179    3.8552 H       1  LIG1        0.0524
     54 H          11.8155   -3.6132    3.8092 H       1  LIG1        0.0524
     55 H          10.8023   -4.2185    2.7279 H       1  LIG1        0.0524
     56 C           9.8654   -1.1190   -4.1455 C.3     1  LIG1       -0.0127
     57 H           9.8570   -1.7170   -4.9212 H       1  LIG1        0.0391
     58 H          10.7439   -1.1581   -3.7109 H       1  LIG1        0.0391
     59 H           9.6866   -0.2018   -4.4389 H       1  LIG1        0.0391
     60 C           4.2527   -0.5127    6.0590 C.2     1  LIG1        0.2417
     61 C           3.2251   -0.9244    7.1118 C.3     1  LIG1        0.1235
     62 H           2.6116   -0.1668    7.2835 H       1  LIG1        0.0656
     63 H           2.6871   -1.6800    6.7674 H       1  LIG1        0.0656
     64 C           4.2076   -0.1843    9.1070 C.3     1  LIG1        0.0371
     65 H           4.8631    0.3593    8.6198 H       1  LIG1        0.0524
     66 H           4.5991   -0.4900    9.9530 H       1  LIG1        0.0524
     67 H           3.4097    0.3541    9.2925 H       1  LIG1        0.0524
     68 C           5.4817    1.1664   -0.1382 C.3     1  LIG1        0.0077
     69 H           5.7215    1.9909   -0.6328 H       1  LIG1        0.0388
     70 H           5.7056    0.3922   -0.7127 H       1  LIG1        0.0388
@<TRIPOS>BOND
     1    57    56    1
     2    41    39    1
     3    59    56    1
     4    56    58    1
     5    56     4    1
     6    39     4    1
     7    39    40    1
     8    38    36    1
     9     4    36    1
    10    36    37    1
    11    36    33    1
    12    34    33    1
    13    33    35    1
    14    33     3    1
    15    70    68    1
    16    31    30    1
    17    69    68    1
    18     3    30    1
    19     3    48   am
    20    68     1    1
    21    30    32    1
    22    30    10    1
    23     6    48    2
    24    48    49    1
    25    12    11    1
    26    23    22    1
    27    10    11   ar
    28    10     9   ar
    29     1     9    1
    30    50    49    1
    31    11    13   ar
    32    24    22    1
    33    49    51    1
    34    49     5    1
    35     9    16   ar
    36    22    25    1
    37    22    17    1
    38     5    52    1
    39    27    26    1
    40    13    17    1
    41    13    14   ar
    42    55    52    1
    43    16    14   ar
    44    16    45    1
    45    17    26    1
    46    17    18    1
    47    47    45    1
    48    52    54    1
    49    52    53    1
    50    26    28    1
    51    26    29    1
    52    14    15    1
    53    43    42    1
    54    45    46    1
    55    45     2    1
    56    20    18    1
    57    18    19    1
    58    18    21    1
    59    42     2    1
    60    42    44    1
    61     2    60   am
    62    60     7    2
    63    60    61    1
    64    63    61    1
    65    61    62    1
    66    61     8    1
    67     8    64    1
    68    65    64    1
    69    64    67    1
    70    64    66    1
