@<TRIPOS>MOLECULE
?
 60 64 0 0 0
SMALL
GASTEIGER

@<TRIPOS>ATOM
      1 CL         10.4543    1.7860    0.1264 Cl      1  LIG1        0.1627
      2 CL          8.8417    3.8647   -1.4618 Cl      1  LIG1        0.1627
      3 CL          6.2886    0.2830    2.2772 Cl      1  LIG1        0.1627
      4 CL          4.6641    1.9461    0.2769 Cl      1  LIG1        0.1627
      5 CL          5.9095    6.9769    7.8593 Cl      1  LIG1        0.1627
      6 CL          4.3512    8.6862    5.8564 Cl      1  LIG1        0.1627
      7 CL          0.1124    6.9384    7.7677 Cl      1  LIG1        0.1627
      8 CL          1.7496    5.1628    9.6448 Cl      1  LIG1        0.1627
      9 P           7.6794    4.1708    2.4703 P.3     1  LIG1        0.4403
     10 P           6.4090    2.0024    1.2441 P.3     1  LIG1        0.4825
     11 P           8.7777    2.8496    0.2596 P.3     1  LIG1        0.4825
     12 P           3.0207    4.7077    5.6107 P.3     1  LIG1        0.4403
     13 P           1.8671    5.9840    7.8251 P.3     1  LIG1        0.4825
     14 P           4.1948    6.9451    6.8259 P.3     1  LIG1        0.4825
     15 N           6.4076    3.2147    2.2210 N.3     1  LIG1        0.1949
     16 N           7.5708    1.8329    0.1919 N.3     1  LIG1        0.1929
     17 N           8.8919    3.8322    1.4627 N.3     1  LIG1        0.1949
     18 N           1.8762    4.8845    6.7337 N.3     1  LIG1        0.1949
     19 N           3.0112    7.0730    7.8561 N.3     1  LIG1        0.1929
     20 N           4.2181    5.7643    5.8156 N.3     1  LIG1        0.1949
     21 N           7.2777    5.7519    2.4306 N.3     1  LIG1       -0.1246
     22 N           8.1579    4.1735    4.0199 N.3     1  LIG1       -0.1173
     23 N           3.5826    3.1939    5.5313 N.3     1  LIG1       -0.1173
     24 N           2.3903    4.7234    4.0935 N.3     1  LIG1       -0.1246
     25 C           7.3093    0.5492    7.1766 C.ar    1  LIG1       -0.0612
     26 H           7.6227   -0.1641    7.6829 H       1  LIG1        0.0618
     27 C           8.1659    1.2324    6.3550 C.ar    1  LIG1       -0.0572
     28 H           9.0583    0.9779    6.3094 H       1  LIG1        0.0621
     29 C           7.7250    2.2917    5.5957 C.ar    1  LIG1       -0.0295
     30 C           6.3904    2.6507    5.6838 C.ar    1  LIG1       -0.0527
     31 H           6.0740    3.3590    5.1714 H       1  LIG1        0.0624
     32 C           5.5168    1.9772    6.5210 C.ar    1  LIG1       -0.0295
     33 C           5.9869    0.9166    7.2575 C.ar    1  LIG1       -0.0572
     34 H           5.4074    0.4454    7.8125 H       1  LIG1        0.0621
     35 C           8.7029    3.0271    4.7087 C.3     1  LIG1        0.0639
     36 H           9.4510    3.3222    5.2523 H       1  LIG1        0.0512
     37 H           9.0474    2.4046    4.0489 H       1  LIG1        0.0512
     38 C           4.0725    2.4471    6.6496 C.3     1  LIG1        0.0639
     39 H           3.5048    1.6711    6.7752 H       1  LIG1        0.0512
     40 H           3.9957    2.9973    7.4453 H       1  LIG1        0.0512
     41 C           3.2457    2.5265    4.2699 C.3     1  LIG1        0.0554
     42 H           2.4894    1.9324    4.3913 H       1  LIG1        0.0477
     43 H           3.9996    2.0094    3.9473 H       1  LIG1        0.0477
     44 C           2.9067    3.6092    3.3041 C.3     1  LIG1        0.0548
     45 H           3.6957    3.8815    2.8103 H       1  LIG1        0.0477
     46 H           2.2366    3.3021    2.6733 H       1  LIG1        0.0477
     47 C           2.1006    5.9508    3.3881 C.3     1  LIG1        0.0275
     48 H           1.8085    6.6176    4.0136 H       1  LIG1        0.0427
     49 H           1.4090    5.7937    2.7418 H       1  LIG1        0.0427
     50 H           2.8932    6.2559    2.9399 H       1  LIG1        0.0427
     51 C           7.9885    5.4639    4.6796 C.3     1  LIG1        0.0554
     52 H           8.8516    5.8741    4.8477 H       1  LIG1        0.0477
     53 H           7.5278    5.3517    5.5262 H       1  LIG1        0.0477
     54 C           7.1801    6.3165    3.7553 C.3     1  LIG1        0.0548
     55 H           6.2538    6.3329    4.0427 H       1  LIG1        0.0477
     56 H           7.5197    7.2237    3.7564 H       1  LIG1        0.0477
     57 C           6.4723    6.2964    1.3579 C.3     1  LIG1        0.0275
     58 H           6.6340    5.8004    0.5529 H       1  LIG1        0.0427
     59 H           6.7048    7.2171    1.2189 H       1  LIG1        0.0427
     60 H           5.5435    6.2325    1.5913 H       1  LIG1        0.0427
@<TRIPOS>BOND
     1     2    11    1
     2     1    11    1
     3    16    11    1
     4    16    10    1
     5    11    17    1
     6     4    10    1
     7    58    57    1
     8    59    57    1
     9    10    15    1
    10    10     3    1
    11    57    60    1
    12    57    21    1
    13    17     9    1
    14    15     9    1
    15    21     9    1
    16    21    54    1
    17     9    22    1
    18    46    44    1
    19    49    47    1
    20    45    44    1
    21    50    47    1
    22    44    24    1
    23    44    41    1
    24    47    48    1
    25    47    24    1
    26    54    56    1
    27    54    55    1
    28    54    51    1
    29    43    41    1
    30    22    51    1
    31    22    35    1
    32    37    35    1
    33    24    12    1
    34    41    42    1
    35    41    23    1
    36    51    52    1
    37    51    53    1
    38    35    36    1
    39    35    29    1
    40    31    30    1
    41    23    12    1
    42    23    38    1
    43    29    30   ar
    44    29    27   ar
    45    12    20    1
    46    12    18    1
    47    30    32   ar
    48    20    14    1
    49     6    14    1
    50    28    27    1
    51    27    25   ar
    52    32    38    1
    53    32    33   ar
    54    38    39    1
    55    38    40    1
    56    18    13    1
    57    14    19    1
    58    14     5    1
    59    25    33   ar
    60    25    26    1
    61    33    34    1
    62     7    13    1
    63    13    19    1
    64    13     8    1
