@<TRIPOS>MOLECULE
?
 33 31 0 0 0
SMALL
GASTEIGER

@<TRIPOS>ATOM
      1 N           5.6045   11.8339    3.0466 N.pl3   1  LIG1       -0.3431
      2 H           5.7943   12.6246    3.4386 H       1  LIG1        0.1437
      3 H           5.5813   11.6863    2.2003 H       1  LIG1        0.1437
      4 N           4.9687    9.6321    3.2769 N.ar    1  LIG1       -0.2131
      5 N           4.3930    7.4064    3.4304 N.ar    1  LIG1       -0.2325
      6 C           5.2800   10.7879    3.8418 C.ar    1  LIG1        0.1185
      7 C           5.3009   10.9670    5.2592 C.ar    1  LIG1       -0.0214
      8 H           5.5283   11.7904    5.6276 H       1  LIG1        0.0652
      9 C           4.9860    9.9272    6.0554 C.ar    1  LIG1       -0.0476
     10 H           4.9845   10.0366    6.9785 H       1  LIG1        0.0626
     11 C           4.6582    8.6690    5.4987 C.ar    1  LIG1        0.0222
     12 C           4.6625    8.5772    4.0772 C.ar    1  LIG1        0.1622
     13 C           4.1026    6.3331    4.1529 C.ar    1  LIG1        0.0409
     14 C           4.0595    6.3741    5.5683 C.ar    1  LIG1       -0.0370
     15 H           3.8451    5.6043    6.0431 H       1  LIG1        0.0638
     16 C           4.3265    7.5185    6.2396 C.ar    1  LIG1       -0.0381
     17 C           3.8564    5.0574    3.4191 C.3     1  LIG1       -0.0223
     18 H           3.2287    5.2119    2.7089 H       1  LIG1        0.0292
     19 H           3.5000    4.4033    4.0250 H       1  LIG1        0.0292
     20 H           4.6825    4.7359    3.0507 H       1  LIG1        0.0292
     21 C           4.2818    7.5714    7.7491 C.3     1  LIG1       -0.0390
     22 H           3.9678    6.7303    8.0889 H       1  LIG1        0.0278
     23 H           3.6870    8.2708    8.0275 H       1  LIG1        0.0278
     24 H           5.1625    7.7454    8.0889 H       1  LIG1        0.0278
     25 O           4.7681    7.0618    0.6908 O.3     2  HOH2       -0.4105
     26 H           4.6121    7.1022    1.5259 H       0  HOH0        0.2052
     27 H           4.9109    7.8443    0.3920 H       0  HOH0        0.2052
     28 O           5.5939   11.3825    9.6669 O.3     3  HOH3       -0.4105
     29 H           6.2937   10.8998    9.6505 H       0  HOH0        0.2052
     30 H           4.9412   10.9254    9.9617 H       0  HOH0        0.2052
     31 O           4.8563    9.8950    0.4912 O.3     4  HOH4       -0.4105
     32 H           4.8246    9.8148    1.3365 H       0  HOH0        0.2052
     33 H           4.0762   10.0519    0.1914 H       0  HOH0        0.2052
@<TRIPOS>BOND
     1    33    31    1
     2    27    25    1
     3    31    32    1
     4    25    26    1
     5     3     1    1
     6    18    17    1
     7     1     2    1
     8     1     6    1
     9    20    17    1
    10     4     6   ar
    11     4    12   ar
    12    17    19    1
    13    17    13    1
    14     5    12   ar
    15     5    13   ar
    16     6     7   ar
    17    12    11   ar
    18    13    14   ar
    19     7     8    1
    20     7     9   ar
    21    11     9   ar
    22    11    16   ar
    23    14    15    1
    24    14    16   ar
    25     9    10    1
    26    16    21    1
    27    21    23    1
    28    21    24    1
    29    21    22    1
    30    29    28    1
    31    28    30    1
