@<TRIPOS>MOLECULE
?
 61 65 0 0 0
SMALL
GASTEIGER

@<TRIPOS>ATOM
      1 C          -0.1760    1.6086    9.2364 C.2     1  LIG1        0.3264
      2 C           1.7322    0.4635    8.4548 C.2     1  LIG1        0.4450
      3 C           0.8685    0.8031    6.1445 C.ar    1  LIG1        0.0449
      4 C           3.2693    0.5379    6.5824 C.ar    1  LIG1        0.0449
      5 C          -2.0036    2.4232   10.6529 C.ar    1  LIG1        0.1264
      6 C          -2.1896    0.2766    9.4765 C.ar    1  LIG1        0.1264
      7 C           0.4304    2.9777    9.1947 C.ar    1  LIG1        0.0645
      8 C           1.7274    3.1915    9.6638 C.ar    1  LIG1       -0.0470
      9 H           2.2144    2.4852   10.0229 H       1  LIG1        0.0626
     10 C           2.2936    4.4626    9.5928 C.ar    1  LIG1       -0.0610
     11 H           3.1618    4.6007    9.8972 H       1  LIG1        0.0618
     12 C           1.5684    5.5235    9.0715 C.ar    1  LIG1       -0.0617
     13 H           1.9511    6.3697    9.0205 H       1  LIG1        0.0618
     14 C           0.2693    5.3186    8.6265 C.ar    1  LIG1       -0.0610
     15 H          -0.2223    6.0330    8.2917 H       1  LIG1        0.0618
     16 C          -0.2999    4.0520    8.6787 C.ar    1  LIG1       -0.0470
     17 H          -1.1679    3.9201    8.3697 H       1  LIG1        0.0626
     18 C          -2.4393   -0.5105   10.5876 C.ar    1  LIG1       -0.0165
     19 H          -2.1854   -0.2173   11.4327 H       1  LIG1        0.0658
     20 C          -3.0713   -1.7423   10.4347 C.ar    1  LIG1       -0.0579
     21 H          -3.2456   -2.2687   11.1813 H       1  LIG1        0.0619
     22 C          -3.4444   -2.1909    9.1730 C.ar    1  LIG1       -0.0615
     23 H          -3.8543   -3.0187    9.0714 H       1  LIG1        0.0618
     24 C          -3.1968   -1.3869    8.0657 C.ar    1  LIG1       -0.0579
     25 H          -3.4473   -1.6773    7.2192 H       1  LIG1        0.0619
     26 C          -2.5754   -0.1505    8.2174 C.ar    1  LIG1       -0.0165
     27 H          -2.4196    0.3875    7.4754 H       1  LIG1        0.0658
     28 C          -1.2309    2.7346   11.7680 C.ar    1  LIG1       -0.0165
     29 H          -0.3676    2.3979   11.8448 H       1  LIG1        0.0658
     30 C          -1.7510    3.5511   12.7683 C.ar    1  LIG1       -0.0579
     31 H          -1.2329    3.7642   13.5108 H       1  LIG1        0.0619
     32 C          -3.0458    4.0488   12.6584 C.ar    1  LIG1       -0.0615
     33 H          -3.4012    4.5802   13.3342 H       1  LIG1        0.0618
     34 C          -3.8066    3.7496   11.5363 C.ar    1  LIG1       -0.0579
     35 H          -4.6666    4.0947   11.4550 H       1  LIG1        0.0619
     36 C          -3.2931    2.9398   10.5351 C.ar    1  LIG1       -0.0165
     37 H          -3.8081    2.7417    9.7858 H       1  LIG1        0.0658
     38 C          -0.0534   -0.2147    5.9393 C.ar    1  LIG1       -0.0398
     39 H          -0.0427   -0.9762    6.4730 H       1  LIG1        0.0636
     40 C          -0.9949   -0.0793    4.9208 C.ar    1  LIG1       -0.0600
     41 H          -1.6245   -0.7509    4.7863 H       1  LIG1        0.0618
     42 C          -1.0072    1.0404    4.1057 C.ar    1  LIG1       -0.0616
     43 H          -1.6279    1.1125    3.4163 H       1  LIG1        0.0618
     44 C          -0.0850    2.0540    4.3277 C.ar    1  LIG1       -0.0600
     45 H          -0.0889    2.8103    3.7870 H       1  LIG1        0.0618
     46 C           0.8429    1.9436    5.3531 C.ar    1  LIG1       -0.0398
     47 H           1.4467    2.6330    5.5103 H       1  LIG1        0.0636
     48 C           3.5913   -0.5638    5.8013 C.ar    1  LIG1       -0.0398
     49 H           2.9583   -1.2274    5.6487 H       1  LIG1        0.0636
     50 C           4.8617   -0.6716    5.2477 C.ar    1  LIG1       -0.0600
     51 H           5.0770   -1.4074    4.7211 H       1  LIG1        0.0618
     52 C           5.8087    0.3118    5.4788 C.ar    1  LIG1       -0.0616
     53 H           6.6570    0.2405    5.1045 H       1  LIG1        0.0618
     54 C           5.4841    1.4065    6.2725 C.ar    1  LIG1       -0.0600
     55 H           6.1218    2.0629    6.4380 H       1  LIG1        0.0618
     56 C           4.2141    1.5276    6.8208 C.ar    1  LIG1       -0.0398
     57 H           3.9980    2.2651    7.3433 H       1  LIG1        0.0636
     58 N           0.4133    0.5211    8.8920 N.am    1  LIG1        0.0458
     59 N          -1.5079    1.5437    9.6304 N.pl3   1  LIG1       -0.1538
     60 N           1.9284    0.6579    7.1067 N.am    1  LIG1       -0.2011
     61 O           2.6532    0.1591    9.1972 O.2     1  LIG1       -0.2187
@<TRIPOS>BOND
     1    43    42    1
     2    45    44    1
     3    42    44   ar
     4    42    40   ar
     5    44    46   ar
     6    51    50    1
     7    41    40    1
     8    40    38   ar
     9    53    52    1
    10    50    52   ar
    11    50    48   ar
    12    46    47    1
    13    46     3   ar
    14    52    54   ar
    15    49    48    1
    16    48     4   ar
    17    38     3   ar
    18    38    39    1
    19     3    60    1
    20    54    55    1
    21    54    56   ar
    22     4    56   ar
    23     4    60    1
    24    56    57    1
    25    60     2   am
    26    25    24    1
    27    27    26    1
    28    24    26   ar
    29    24    22   ar
    30    26     6   ar
    31    15    14    1
    32    17    16    1
    33     2    58    1
    34     2    61    2
    35    14    16   ar
    36    14    12   ar
    37    16     7   ar
    38    58     1    2
    39    13    12    1
    40    23    22    1
    41    12    10   ar
    42    22    20   ar
    43     7     1    1
    44     7     8   ar
    45     1    59    1
    46     6    59    1
    47     6    18   ar
    48    10     8   ar
    49    10    11    1
    50    59     5    1
    51     8     9    1
    52    37    36    1
    53    20    18   ar
    54    20    21    1
    55    36     5   ar
    56    36    34   ar
    57    18    19    1
    58     5    28   ar
    59    35    34    1
    60    34    32   ar
    61    28    29    1
    62    28    30   ar
    63    32    30   ar
    64    32    33    1
    65    30    31    1
