@<TRIPOS>MOLECULE
5-Benzyl-7a-hydroxy-1-methyl-2,3,5,6,7,7a-hexahydro-1H-3a,7-methano-indeno[2,1-d]pyrrolo[3,2-c]azepine-12,13(4H)-dione
 53 58 0 0 0
SMALL
GASTEIGER

@<TRIPOS>ATOM
      1 C           0.8527   12.0847    6.8391 C.3     1  LIG1        0.1322
      2 C           0.4519   12.9575    8.0365 C.2     1  LIG1        0.1878
      3 C           0.5443   12.1290    9.2522 C.ar    1  LIG1        0.0254
      4 C           0.1752   12.4560   10.5566 C.ar    1  LIG1       -0.0508
      5 H          -0.2040   13.2815   10.7527 H       1  LIG1        0.0625
      6 C           0.3879   11.5215   11.5478 C.ar    1  LIG1       -0.0611
      7 H           0.1321   11.7108   12.4222 H       1  LIG1        0.0618
      8 C           0.9783   10.3039   11.2551 C.ar    1  LIG1       -0.0614
      9 H           1.1327    9.6970   11.9432 H       1  LIG1        0.0618
     10 C           1.3436    9.9688    9.9624 C.ar    1  LIG1       -0.0551
     11 H           1.7372    9.1471    9.7738 H       1  LIG1        0.0621
     12 C           1.1067   10.8923    8.9570 C.ar    1  LIG1       -0.0026
     13 C           1.3586   10.7298    7.4769 C.3     1  LIG1        0.1286
     14 C           2.8305   10.6157    7.0128 C.3     1  LIG1        0.0660
     15 H           3.1156    9.6812    6.9389 H       1  LIG1        0.0423
     16 C           3.8296   11.4521    7.8221 C.3     1  LIG1        0.0118
     17 H           3.9430   11.0541    8.6996 H       1  LIG1        0.0434
     18 H           4.6903   11.4418    7.3760 H       1  LIG1        0.0434
     19 C           3.0185   13.4587    6.6992 C.3     1  LIG1        0.0139
     20 H           3.8143   13.5723    6.1571 H       1  LIG1        0.0437
     21 H           2.6374   14.3359    6.8624 H       1  LIG1        0.0437
     22 C           2.0054   12.5941    5.9444 C.3     1  LIG1        0.0718
     23 C           2.7271   11.2770    5.6567 C.2     1  LIG1        0.1504
     24 C           1.3705   13.2514    4.7234 C.3     1  LIG1       -0.0243
     25 H           1.5381   14.2073    4.7203 H       1  LIG1        0.0288
     26 H           1.7217   12.8681    3.9039 H       1  LIG1        0.0288
     27 C          -0.1135   12.9638    4.8616 C.3     1  LIG1        0.0006
     28 H          -0.5871   13.7563    5.1573 H       1  LIG1        0.0427
     29 H          -0.4850   12.6801    4.0118 H       1  LIG1        0.0427
     30 C          -1.5882   11.8000    6.4115 C.3     1  LIG1       -0.0117
     31 H          -1.6207   11.1035    7.0720 H       1  LIG1        0.0391
     32 H          -2.2075   11.6000    5.7054 H       1  LIG1        0.0391
     33 H          -1.8245   12.6366    6.8174 H       1  LIG1        0.0391
     34 C           4.3814   13.6746    8.6441 C.3     1  LIG1        0.0241
     35 H           4.0783   14.5950    8.6105 H       1  LIG1        0.0476
     36 H           5.2082   13.6237    8.1389 H       1  LIG1        0.0476
     37 C           4.6834   13.3278   10.0818 C.ar    1  LIG1       -0.0334
     38 C           3.7568   12.7239   10.9177 C.ar    1  LIG1       -0.0573
     39 H           2.9293   12.4685   10.5766 H       1  LIG1        0.0621
     40 C           4.0441   12.4942   12.2518 C.ar    1  LIG1       -0.0615
     41 H           3.4175   12.0748   12.7963 H       1  LIG1        0.0618
     42 C           5.2611   12.8869   12.7747 C.ar    1  LIG1       -0.0617
     43 H           5.4523   12.7415   13.6735 H       1  LIG1        0.0618
     44 C           6.1889   13.4953   11.9603 C.ar    1  LIG1       -0.0615
     45 H           7.0067   13.7681   12.3111 H       1  LIG1        0.0618
     46 C           5.9081   13.7027   10.6228 C.ar    1  LIG1       -0.0573
     47 H           6.5483   14.0985   10.0767 H       1  LIG1        0.0621
     48 N          -0.2337   11.8889    5.8624 N.3     1  LIG1       -0.2897
     49 N           3.3820   12.8380    7.9761 N.3     1  LIG1       -0.2964
     50 O           0.6419    9.5944    7.0063 O.3     1  LIG1       -0.3808
     51 O           0.0680   14.1066    7.9522 O.2     1  LIG1       -0.2899
     52 O           3.1084   10.8820    4.5869 O.2     1  LIG1       -0.2962
     53 H           0.3028    9.8236    6.2881 H       1  LIG1        0.2107
@<TRIPOS>BOND
     1    26    24    1
     2    29    27    1
     3    52    23    2
     4    25    24    1
     5    24    27    1
     6    24    22    1
     7    27    28    1
     8    27    48    1
     9    23    22    1
    10    23    14    1
    11    32    30    1
    12    48    30    1
    13    48     1    1
    14    22    19    1
    15    22     1    1
    16    20    19    1
    17    53    50    1
    18    30    33    1
    19    30    31    1
    20    19    21    1
    21    19    49    1
    22     1    13    1
    23     1     2    1
    24    15    14    1
    25    50    13    1
    26    14    13    1
    27    14    16    1
    28    18    16    1
    29    13    12    1
    30    16    49    1
    31    16    17    1
    32    51     2    2
    33    49    34    1
    34     2     3    1
    35    36    34    1
    36    35    34    1
    37    34    37    1
    38    12     3   ar
    39    12    10   ar
    40     3     4   ar
    41    11    10    1
    42    10     8   ar
    43    47    46    1
    44    37    46   ar
    45    37    38   ar
    46     4     5    1
    47     4     6   ar
    48    39    38    1
    49    46    44   ar
    50    38    40   ar
    51     8     6   ar
    52     8     9    1
    53     6     7    1
    54    44    45    1
    55    44    42   ar
    56    40    42   ar
    57    40    41    1
    58    42    43    1
