@<TRIPOS>MOLECULE
7056000.cif
 66 68 0 0 0
SMALL
GASTEIGER

@<TRIPOS>ATOM
      1 P           4.4882    5.9147    1.5397 P.3     1  LIG1        0.6235
      2 P           9.5676    9.2469    2.3922 P.3     2  LIG2        0.6235
      3 C           1.2664    1.6660    0.8834 C.ar    3  LIG3        0.1266
      4 C           3.6831    2.0205    1.2373 C.3     3  LIG3        0.1312
      5 H           3.7221    2.9023    0.9472 H       3  LIG3        0.0750
      6 C           6.3217    2.3861    3.2061 C.ar    3  LIG3       -0.0255
      7 C          -0.2213    3.0931   -0.2605 C.ar    3  LIG3       -0.0571
      8 H          -0.4008    3.8272   -0.8028 H       3  LIG3        0.0619
      9 C           6.0646    1.8127    1.8254 C.3     3  LIG3        0.0389
     10 H           6.2181    2.5046    1.1628 H       3  LIG3        0.0513
     11 H           6.6964    1.0966    1.6575 H       3  LIG3        0.0513
     12 C           7.4704    3.1443    3.4179 C.ar    3  LIG3       -0.0255
     13 C           1.0876    2.7617    0.0643 C.ar    3  LIG3       -0.0213
     14 H           1.8096    3.2537   -0.2560 H       3  LIG3        0.0652
     15 C           5.4580    2.1782    4.2634 C.ar    3  LIG3       -0.0568
     16 H           4.6877    1.6751    4.1294 H       3  LIG3        0.0621
     17 C           2.9335    0.0211    1.7867 C.2     3  LIG3        0.0137
     18 H           2.3577   -0.6939    1.9348 H       3  LIG3        0.0797
     19 C           6.8521    3.4546    5.7242 C.ar    3  LIG3       -0.0614
     20 H           7.0298    3.8151    6.5628 H       3  LIG3        0.0618
     21 C           7.7314    3.6675    4.6729 C.ar    3  LIG3       -0.0568
     22 H           8.5041    4.1666    4.8128 H       3  LIG3        0.0621
     23 C           5.7161    2.7054    5.5184 C.ar    3  LIG3       -0.0614
     24 H           5.1251    2.5528    6.2201 H       3  LIG3        0.0618
     25 C          -0.9354    1.2382    1.0236 C.ar    3  LIG3        0.0297
     26 H          -1.6344    0.7120    1.3380 H       3  LIG3        0.0830
     27 C           4.2549    0.0372    2.0116 C.2     3  LIG3        0.0082
     28 H           4.7674   -0.6658    2.3371 H       3  LIG3        0.0793
     29 C          -1.2449    2.3258    0.2301 C.ar    3  LIG3       -0.0435
     30 H          -2.1296    2.5327    0.0327 H       3  LIG3        0.0633
     31 C          10.7460    3.2608    2.9387 C.3     3  LIG3        0.1312
     32 H          10.7855    2.3328    2.9897 H       3  LIG3        0.0750
     33 C          13.0876    3.7066    3.5503 C.ar    3  LIG3        0.1266
     34 C           8.3775    3.4024    2.2357 C.3     3  LIG3        0.0389
     35 H           8.5210    2.5668    1.7634 H       3  LIG3        0.0513
     36 H           7.9334    4.0129    1.6267 H       3  LIG3        0.0513
     37 C          13.3131    2.5297    4.2160 C.ar    3  LIG3       -0.0213
     38 H          12.6136    1.9663    4.4548 H       3  LIG3        0.0652
     39 C          10.0093    5.3084    2.6317 C.2     3  LIG3        0.0082
     40 H           9.4458    6.0214    2.4314 H       3  LIG3        0.0793
     41 C          14.6251    2.2174    4.5162 C.ar    3  LIG3       -0.0571
     42 H          14.8373    1.4230    4.9514 H       3  LIG3        0.0619
     43 C          11.2995    5.3867    3.0022 C.2     3  LIG3        0.0137
     44 H          11.7941    6.1660    3.1129 H       3  LIG3        0.0797
     45 C          15.6130    3.1131    4.1544 C.ar    3  LIG3       -0.0435
     46 H          16.5028    2.9374    4.3604 H       3  LIG3        0.0633
     47 C          15.2744    4.2489    3.4985 C.ar    3  LIG3        0.0297
     48 H          15.9554    4.8364    3.2612 H       3  LIG3        0.0830
     49 N           0.3126    0.8978    1.3659 N.ar    3  LIG3       -0.2400
     50 N           9.6810    3.9667    2.6049 N.pl3   3  LIG3       -0.3088
     51 N           2.5882    1.2663    1.2935 N.pl3   3  LIG3       -0.2679
     52 N           4.7111    1.2975    1.6676 N.pl3   3  LIG3       -0.3088
     53 N          11.7564    4.0953    3.1894 N.pl3   3  LIG3       -0.2679
     54 N          14.0095    4.5793    3.1693 N.ar    3  LIG3       -0.2400
     55 F           4.4619    6.9820    0.3567 F       1  LIG1       -0.1039
     56 F           4.4661    4.8426    2.7133 F       1  LIG1       -0.1039
     57 F           3.1291    5.2827    0.9789 F       1  LIG1       -0.1039
     58 F           3.6352    6.9191    2.4418 F       1  LIG1       -0.1039
     59 F           5.8278    6.5235    2.0824 F       1  LIG1       -0.1039
     60 F           5.3079    4.8917    0.6230 F       1  LIG1       -0.1039
     61 F           9.7069    8.2023    3.5821 F       2  LIG2       -0.1039
     62 F          10.8794    8.6375    1.7411 F       2  LIG2       -0.1039
     63 F           9.4698   10.3135    1.2103 F       2  LIG2       -0.1039
     64 F          10.5029   10.2572    3.2140 F       2  LIG2       -0.1039
     65 F           8.7147    8.2217    1.5484 F       2  LIG2       -0.1039
     66 F           8.3000    9.8717    3.0588 F       2  LIG2       -0.1039
@<TRIPOS>BOND
     1     8     7    1
     2     7    13   ar
     3     7    29   ar
     4    14    13    1
     5    30    29    1
     6    13     3   ar
     7    29    25   ar
     8    55     1    1
     9    60     1    1
    10     3    51    1
    11     3    49   ar
    12     5     4    1
    13    57     1    1
    14    25    26    1
    15    25    49   ar
    16    10     9    1
    17    63     2    1
    18     4    51    1
    19     4    52    1
    20    51    17    1
    21     1    59    1
    22     1    58    1
    23     1    56    1
    24    65     2    1
    25    36    34    1
    26    11     9    1
    27    52     9    1
    28    52    27    1
    29    62     2    1
    30    35    34    1
    31    17    18    1
    32    17    27    2
    33     9     6    1
    34    27    28    1
    35    34    50    1
    36    34    12    1
    37     2    66    1
    38     2    64    1
    39     2    61    1
    40    40    39    1
    41    50    39    1
    42    50    31    1
    43    39    43    2
    44    31    32    1
    45    31    53    1
    46    43    44    1
    47    43    53    1
    48    54    47   ar
    49    54    33   ar
    50    53    33    1
    51     6    12   ar
    52     6    15   ar
    53    48    47    1
    54    12    21   ar
    55    47    45   ar
    56    33    37   ar
    57    16    15    1
    58    45    46    1
    59    45    41   ar
    60    37    38    1
    61    37    41   ar
    62    15    23   ar
    63    41    42    1
    64    21    22    1
    65    21    19   ar
    66    23    19   ar
    67    23    24    1
    68    19    20    1
