@<TRIPOS>MOLECULE
C10 H10 I2 O2, C10 H8 N2
 88 90 0 0 0
SMALL
GASTEIGER

@<TRIPOS>ATOM
      1 C           0.0105    9.2342   10.4545 C.3     1  LIG1        0.1274
      2 C           0.9812   10.2717    9.8651 C.3     1  LIG1       -0.0091
      3 H           1.0541   10.1330    8.8971 H       1  LIG1        0.0304
      4 H           0.6212   11.1715   10.0147 H       1  LIG1        0.0304
      5 C           2.3603   10.1761   10.4888 C.3     1  LIG1       -0.0091
      6 H           2.3004   10.3982   11.4410 H       1  LIG1        0.0304
      7 H           2.9531   10.8300   10.0640 H       1  LIG1        0.0304
      8 C           2.9624    8.7708   10.3342 C.3     1  LIG1        0.1274
      9 C           2.0119    7.7423   10.9568 C.3     1  LIG1       -0.0091
     10 H           2.3733    6.8413   10.8186 H       1  LIG1        0.0304
     11 H           1.9519    7.8988   11.9233 H       1  LIG1        0.0304
     12 C           0.6140    7.8255   10.3428 C.3     1  LIG1       -0.0091
     13 H           0.0255    7.1869   10.7953 H       1  LIG1        0.0304
     14 H           0.6630    7.5716    9.3976 H       1  LIG1        0.0304
     15 H          -1.9512    9.0392    9.8799 H       1  LIG1        0.2114
     16 O          -1.1913    9.3363    9.6587 O.3     1  LIG1       -0.3765
     17 C          -0.2464    9.5442   11.8751 C.1     1  LIG1       -0.0565
     18 C          -0.3050    9.7360   13.0451 C.1     1  LIG1       -0.0271
     19 I          -0.3271   10.0274   15.0452 I       1  LIG1        0.0181
     20 H           4.2591    9.0504   11.7703 H       1  LIG1        0.2114
     21 O           4.2403    8.7037   10.9817 O.3     1  LIG1       -0.3765
     22 C           3.1396    8.4859    8.9018 C.1     1  LIG1       -0.0565
     23 C           3.0845    8.3441    7.7131 C.1     1  LIG1       -0.0271
     24 I           2.9036    8.2151    5.7145 I       1  LIG1        0.0181
     25 C           6.7536    7.6714    2.2581 C.3     2  LIG2        0.1274
     26 C           6.1034    8.9361    1.6669 C.3     2  LIG2       -0.0091
     27 H           6.6696    9.7106    1.8645 H       2  LIG2        0.0304
     28 H           6.0484    8.8432    0.6924 H       2  LIG2        0.0304
     29 C           4.7062    9.1816    2.2254 C.3     2  LIG2       -0.0091
     30 H           4.3148    9.9622    1.7815 H       2  LIG2        0.0304
     31 H           4.7731    9.3834    3.1818 H       2  LIG2        0.0304
     32 C           3.7860    7.9805    2.0299 C.3     2  LIG2        0.1274
     33 C           4.4399    6.7043    2.5786 C.3     2  LIG2       -0.0091
     34 H           4.4958    6.7665    3.5552 H       2  LIG2        0.0304
     35 H           3.8740    5.9345    2.3598 H       2  LIG2        0.0304
     36 C           5.8327    6.4747    2.0131 C.3     2  LIG2       -0.0091
     37 H           5.7671    6.3108    1.0502 H       2  LIG2        0.0304
     38 H           6.2229    5.6769    2.4298 H       2  LIG2        0.0304
     39 H           7.9939    7.4805    0.7754 H       2  LIG2        0.2114
     40 O           8.0380    7.4353    1.6627 O.3     2  LIG2       -0.3765
     41 C           6.9497    7.8552    3.7269 C.1     2  LIG2       -0.0565
     42 C           6.9329    8.0338    4.8951 C.1     2  LIG2       -0.0271
     43 I           6.8034    8.4335    6.8581 I       2  LIG2        0.0181
     44 O           2.5958    8.2694    2.7936 O.3     2  LIG2       -0.3765
     45 H           1.9328    7.9623    2.3987 H       2  LIG2        0.2114
     46 C           3.5100    7.7987    0.6001 C.1     2  LIG2       -0.0565
     47 C           3.4222    7.5705   -0.5861 C.1     2  LIG2       -0.0271
     48 I           3.3911    7.2036   -2.5664 I       2  LIG2        0.0181
     49 C           3.6531    9.9941   16.3993 C.ar    3  LIG3       -0.0149
     50 C           3.6686   11.0426   15.4852 C.ar    3  LIG3       -0.0359
     51 H           3.6484   11.9329   15.7871 H       3  LIG3        0.0639
     52 C           3.7132   10.7699   14.1259 C.ar    3  LIG3        0.0281
     53 H           3.7126   11.4926   13.5259 H       3  LIG3        0.0830
     54 N           3.7579    9.5258   13.6247 N.ar    3  LIG3       -0.2632
     55 C           3.7292    8.5216   14.4957 C.ar    3  LIG3        0.0281
     56 H           3.7510    7.6439   14.1586 H       3  LIG3        0.0830
     57 C           3.6687    8.6936   15.8682 C.ar    3  LIG3       -0.0359
     58 H           3.6388    7.9472   16.4380 H       3  LIG3        0.0639
     59 C           3.6451   10.2225   17.8533 C.ar    3  LIG3       -0.0149
     60 C           3.1765   11.4149   18.4010 C.ar    3  LIG3       -0.0359
     61 H           2.8573   12.1026   17.8460 H       3  LIG3        0.0639
     62 C           3.1897   11.5728   19.7857 C.ar    3  LIG3        0.0281
     63 H           2.8581   12.3775   20.1410 H       3  LIG3        0.0830
     64 N           3.6410   10.6551   20.6357 N.ar    3  LIG3       -0.2632
     65 C           4.0880    9.5289   20.1099 C.ar    3  LIG3        0.0281
     66 H           4.4181    8.8739   20.6959 H       3  LIG3        0.0830
     67 C           4.1061    9.2445   18.7459 C.ar    3  LIG3       -0.0359
     68 H           4.4189    8.4149   18.4295 H       3  LIG3        0.0639
     69 C           7.6511   10.7984   22.1138 C.ar    4  LIG4       -0.0149
     70 C           7.6391    9.7035   22.9530 C.ar    4  LIG4       -0.0359
     71 H           7.5575    8.8350   22.6045 H       4  LIG4        0.0639
     72 C           7.7485    9.9043   24.3185 C.ar    4  LIG4        0.0281
     73 H           7.7346    9.1547   24.8864 H       4  LIG4        0.0830
     74 N           7.8731   11.1242   24.8698 N.ar    4  LIG4       -0.2632
     75 C           7.8728   12.1884   24.0385 C.ar    4  LIG4        0.0281
     76 H           7.9453   13.0487   24.4119 H       4  LIG4        0.0830
     77 C           7.7723   12.0684   22.6667 C.ar    4  LIG4       -0.0359
     78 H           7.7848   12.8307   22.1170 H       4  LIG4        0.0639
     79 C           7.5457   10.6238   20.6204 C.ar    4  LIG4       -0.0149
     80 C           8.0404    9.4837   19.9906 C.ar    4  LIG4       -0.0359
     81 H           8.4232    8.7855   20.4910 H       4  LIG4        0.0639
     82 C           7.9547    9.4061   18.6162 C.ar    4  LIG4        0.0281
     83 H           8.2999    8.6399   18.1935 H       4  LIG4        0.0830
     84 N           7.4123   10.3511   17.8525 N.ar    4  LIG4       -0.2632
     85 C           6.9160   11.4268   18.4658 C.ar    4  LIG4        0.0281
     86 H           6.5148   12.0978   17.9446 H       4  LIG4        0.0830
     87 C           6.9656   11.5965   19.8298 C.ar    4  LIG4       -0.0359
     88 H           6.6064   12.3723   20.2240 H       4  LIG4        0.0639
@<TRIPOS>BOND
     1    48    47    1
     2    47    46    3
     3    46    32    1
     4    28    26    1
     5    39    40    1
     6    37    36    1
     7    40    25    1
     8    26    27    1
     9    26    29    1
    10    26    25    1
    11    30    29    1
    12    36    25    1
    13    36    38    1
    14    36    33    1
    15    32    29    1
    16    32    33    1
    17    32    44    1
    18    29    31    1
    19    25    41    1
    20    35    33    1
    21    45    44    1
    22    33    34    1
    23    41    42    3
    24    42    43    1
    25    24    23    1
    26    23    22    3
    27     3     2    1
    28    22     8    1
    29    14    12    1
    30    16    15    1
    31    16     1    1
    32     2     4    1
    33     2     1    1
    34     2     5    1
    35     7     5    1
    36     8     5    1
    37     8     9    1
    38     8    21    1
    39    12     1    1
    40    12    13    1
    41    12     9    1
    42     1    17    1
    43     5     6    1
    44    10     9    1
    45     9    11    1
    46    21    20    1
    47    17    18    3
    48    18    19    1
    49    53    52    1
    50    54    52   ar
    51    54    55   ar
    52    52    50   ar
    53    56    55    1
    54    55    57   ar
    55    50    51    1
    56    50    49   ar
    57    57    49   ar
    58    57    58    1
    59    49    59    1
    60    61    60    1
    61    84    85   ar
    62    84    82   ar
    63    59    60   ar
    64    59    67   ar
    65    86    85    1
    66    83    82    1
    67    60    62   ar
    68    68    67    1
    69    85    87   ar
    70    82    80   ar
    71    67    65   ar
    72    62    63    1
    73    62    64   ar
    74    87    88    1
    75    87    79   ar
    76    80    81    1
    77    80    79   ar
    78    65    64   ar
    79    65    66    1
    80    79    69    1
    81    69    77   ar
    82    69    70   ar
    83    78    77    1
    84    71    70    1
    85    77    75   ar
    86    70    72   ar
    87    75    76    1
    88    75    74   ar
    89    72    74   ar
    90    72    73    1
