@<TRIPOS>MOLECULE
7057564.cif
 23 23 0 0 0
SMALL
GASTEIGER

@<TRIPOS>ATOM
      1 O           6.9764    4.0383    2.3799 O.co2   1  LIG1       -0.2421
      2 O           5.4191    4.9502    3.7037 O.co2   1  LIG1       -0.2421
      3 N           1.8779    6.5462    0.0694 N.pl3   1  LIG1       -0.2820
      4 N          -0.2537    6.1594    1.2044 N.2     1  LIG1       -0.2400
      5 N           3.6693    5.1693    0.7525 N.2     1  LIG1       -0.0326
      6 N           3.4200    3.5225    2.3899 N.pl3   1  LIG1       -0.2216
      7 N           0.4602    4.4833    2.5049 N.pl3   1  LIG1       -0.2994
      8 C           2.8803    4.5058    1.6653 C.2     1  LIG1        0.3345
      9 C           5.8103    4.1386    2.8239 C.2     1  LIG1        0.3947
     10 C           1.5401    4.9004    1.7636 C.2     1  LIG1        0.1509
     11 C           1.0604    5.9238    0.9704 C.3     1  LIG1        0.2218
     12 C           4.8093    3.1494    2.2344 C.3     1  LIG1        0.1790
     13 H           5.0009    3.0452    1.2691 H       1  LIG1        0.0845
     14 H           4.9482    2.2678    2.6632 H       1  LIG1        0.0845
     15 C          -0.5693    5.2632    2.1414 C.2     1  LIG1        0.0831
     16 H          -1.4397    5.1849    2.5147 H       1  LIG1        0.0997
     17 C           3.1455    6.1154    0.0120 C.2     1  LIG1        0.1998
     18 H           3.7160    6.5335   -0.6220 H       1  LIG1        0.1305
     19 H           0.4550    3.8286    3.0868 H       1  LIG1        0.1531
     20 H           1.5304    7.1730   -0.4626 H       1  LIG1        0.1517
     21 H           2.9102    3.1636    2.9993 H       1  LIG1        0.2920
     22 O           8.6031    5.6279    3.9073 O.3     2  HOH2       -0.2528
     23 H           8.0201    5.0901    3.3681 H       0  HOH0        0.2528
@<TRIPOS>BOND
     1    18    17    1
     2    20     3    1
     3    17     3    1
     4    17     5    2
     5     3    11    1
     6     5     8    1
     7    11     4    1
     8    11    10    1
     9     4    15    2
    10    13    12    1
    11     8    10    2
    12     8     6    1
    13    10     7    1
    14    15     7    1
    15    15    16    1
    16    12     6    1
    17    12    14    1
    18    12     9    1
    19     1     9   ar
    20     6    21    1
    21     7    19    1
    22     9     2   ar
    23    23    22    1
