@<TRIPOS>MOLECULE
7057721.cif
 94 100 0 0 0
SMALL
GASTEIGER

@<TRIPOS>ATOM
      1 O           3.9301    6.7566    2.7103 O.2     1  LIG1       -0.2501
      2 O           2.3057    6.4759    1.1968 O.3     1  LIG1       -0.4644
      3 O          -0.9999    4.7679    0.7926 O.2     1  LIG1       -0.2501
      4 O           0.6625    3.2762    0.9757 O.3     1  LIG1       -0.4644
      5 O          -2.6609    3.6350    6.0262 O.2     1  LIG1       -0.2501
      6 O          -1.0492    4.1432    7.5103 O.3     1  LIG1       -0.4644
      7 O           2.1518    5.7449    7.9661 O.2     1  LIG1       -0.2501
      8 O           0.6405    7.3687    7.6145 O.3     1  LIG1       -0.4644
      9 O           0.3266   -0.7988    4.5690 O.3     1  LIG1       -0.4913
     10 O          -1.6423   -1.6013    2.9782 O.3     1  LIG1       -0.4885
     11 O          -3.3441    0.1741    1.8654 O.3     1  LIG1       -0.4913
     12 N          -0.5480    6.7535    4.1159 N.3     1  LIG1       -0.3060
     13 H          -1.4146    6.7916    3.8746 H       1  LIG1        0.1226
     14 N           1.7983    3.7668    4.5895 N.3     1  LIG1       -0.3060
     15 H           2.6630    3.7215    4.8134 H       1  LIG1        0.1226
     16 C           1.6478    4.4810    3.3450 C.3     1  LIG1        0.0436
     17 H           2.2355    4.1100    2.6270 H       1  LIG1        0.0483
     18 C           1.7634    6.0801    3.4515 C.3     1  LIG1        0.1082
     19 C           0.2538    6.1905    3.0536 C.3     1  LIG1        0.0436
     20 H           0.1263    6.6735    2.1877 H       1  LIG1        0.0483
     21 C           0.1719    4.6208    2.8760 C.3     1  LIG1        0.1082
     22 C          -0.8824    3.9858    3.8301 C.3     1  LIG1        0.0218
     23 H          -1.7581    4.4147    3.6097 H       1  LIG1        0.0372
     24 C          -0.5269    4.4326    5.2511 C.3     1  LIG1        0.1082
     25 C           0.9820    4.3294    5.6484 C.3     1  LIG1        0.0436
     26 H           1.1081    3.8472    6.5141 H       1  LIG1        0.0483
     27 C           1.0607    5.8870    5.8304 C.3     1  LIG1        0.1082
     28 C          -0.4127    6.0325    5.3565 C.3     1  LIG1        0.0436
     29 H          -1.0031    6.4031    6.0735 H       1  LIG1        0.0483
     30 C           2.1194    6.5105    4.8811 C.3     1  LIG1        0.0216
     31 H           2.9848    6.0603    5.0983 H       1  LIG1        0.0372
     32 C           2.3530    7.9991    5.1051 C.ar    1  LIG1       -0.0420
     33 C           3.3631    8.3815    5.9869 C.ar    1  LIG1       -0.0582
     34 H           3.9075    7.7172    6.3898 H       1  LIG1        0.0620
     35 C           3.5873    9.7204    6.2869 C.ar    1  LIG1       -0.0615
     36 H           4.2736    9.9608    6.8982 H       1  LIG1        0.0618
     37 C           2.8102   10.7020    5.6945 C.ar    1  LIG1       -0.0617
     38 H           2.9559   11.6178    5.9003 H       1  LIG1        0.0618
     39 C           1.8222   10.3364    4.8034 C.ar    1  LIG1       -0.0615
     40 H           1.2963   11.0083    4.3854 H       1  LIG1        0.0618
     41 C           1.5863    8.9952    4.5078 C.ar    1  LIG1       -0.0582
     42 H           0.8987    8.7609    3.8959 H       1  LIG1        0.0620
     43 C           2.7828    6.5181    2.4484 C.2     1  LIG1        0.3170
     44 C           3.2599    6.6126    0.0924 C.3     1  LIG1        0.0897
     45 H           4.1872    6.5936    0.4380 H       1  LIG1        0.0694
     46 H           3.1177    7.4735   -0.3765 H       1  LIG1        0.0694
     47 C           3.0374    5.4733   -0.8434 C.3     1  LIG1       -0.0306
     48 H           3.3287    4.6395   -0.4180 H       1  LIG1        0.0262
     49 H           3.5538    5.6184   -1.6643 H       1  LIG1        0.0262
     50 H           2.0846    5.4127   -1.0631 H       1  LIG1        0.0262
     51 C          -0.1312    4.2441    1.4401 C.2     1  LIG1        0.3170
     52 C           0.4272    2.8477   -0.4001 C.3     1  LIG1        0.0897
     53 H           1.2463    2.4188   -0.7531 H       1  LIG1        0.0694
     54 H           0.2343    3.6415   -0.9602 H       1  LIG1        0.0694
     55 C          -0.7158    1.8859   -0.4945 C.3     1  LIG1       -0.0306
     56 H          -0.6008    1.1732    0.1694 H       1  LIG1        0.0262
     57 H          -0.7391    1.4932   -1.3932 H       1  LIG1        0.0262
     58 H          -1.5563    2.3616   -0.3238 H       1  LIG1        0.0262
     59 C          -1.5311    3.9843    6.2727 C.2     1  LIG1        0.3170
     60 C          -1.9657    4.0072    8.6417 C.3     1  LIG1        0.0897
     61 H          -1.7193    3.2187    9.1888 H       1  LIG1        0.0694
     62 H          -2.8938    3.8891    8.3190 H       1  LIG1        0.0694
     63 C          -1.8588    5.2581    9.4561 C.3     1  LIG1       -0.0306
     64 H          -0.9201    5.4165    9.6908 H       1  LIG1        0.0262
     65 H          -2.3883    5.1613   10.2744 H       1  LIG1        0.0262
     66 H          -2.1976    6.0146    8.9365 H       1  LIG1        0.0262
     67 C           1.3477    6.2961    7.2575 C.2     1  LIG1        0.3170
     68 C           0.9990    7.9717    8.8938 C.3     1  LIG1        0.0897
     69 H           0.5253    7.5115    9.6306 H       1  LIG1        0.0694
     70 H           1.9730    7.8886    9.0469 H       1  LIG1        0.0694
     71 C           0.6207    9.3727    8.8587 C.3     1  LIG1       -0.0306
     72 H           1.0728    9.8160    8.1106 H       1  LIG1        0.0262
     73 H           0.8834    9.8008    9.6996 H       1  LIG1        0.0262
     74 H          -0.3500    9.4466    8.7445 H       1  LIG1        0.0262
     75 C          -1.0831    2.4839    3.6533 C.ar    1  LIG1       -0.0348
     76 C          -0.2334    1.5438    4.2328 C.ar    1  LIG1       -0.0126
     77 H           0.4961    1.8322    4.7695 H       1  LIG1        0.0658
     78 C          -0.4505    0.1844    4.0281 C.ar    1  LIG1        0.1654
     79 C          -1.5037   -0.2548    3.2351 C.ar    1  LIG1        0.2035
     80 C          -2.3536    0.6875    2.6567 C.ar    1  LIG1        0.1654
     81 C          -2.1518    2.0504    2.8811 C.ar    1  LIG1       -0.0126
     82 H          -2.7502    2.6854    2.5040 H       1  LIG1        0.0658
     83 C           1.3992   -0.3862    5.4184 C.3     1  LIG1        0.0790
     84 H           2.0300    0.1600    4.9063 H       1  LIG1        0.0660
     85 H           1.8617   -1.1770    5.7686 H       1  LIG1        0.0660
     86 H           1.0419    0.1409    6.1652 H       1  LIG1        0.0660
     87 C          -2.7713   -2.2154    3.6060 C.3     1  LIG1        0.0791
     88 H          -2.7650   -2.0074    4.5636 H       1  LIG1        0.0660
     89 H          -2.7255   -3.1882    3.4830 H       1  LIG1        0.0660
     90 H          -3.5955   -1.8741    3.2031 H       1  LIG1        0.0660
     91 C          -4.3234    1.0928    1.3919 C.3     1  LIG1        0.0790
     92 H          -4.7514    1.5351    2.1538 H       1  LIG1        0.0660
     93 H          -5.0001    0.6095    0.8723 H       1  LIG1        0.0660
     94 H          -3.8927    1.7636    0.8221 H       1  LIG1        0.0660
@<TRIPOS>BOND
     1    49    47    1
     2    57    55    1
     3    50    47    1
     4    54    52    1
     5    47    48    1
     6    47    44    1
     7    53    52    1
     8    55    52    1
     9    55    58    1
    10    55    56    1
    11    52     4    1
    12    46    44    1
    13    44    45    1
    14    44     2    1
    15     3    51    2
    16    94    91    1
    17    93    91    1
    18     4    51    1
    19     2    43    1
    20    91    11    1
    21    91    92    1
    22    51    21    1
    23    11    80    1
    24    20    19    1
    25    43     1    2
    26    43    18    1
    27    82    81    1
    28    17    16    1
    29    80    81   ar
    30    80    79   ar
    31    21    19    1
    32    21    16    1
    33    21    22    1
    34    81    75   ar
    35    10    79    1
    36    10    87    1
    37    19    18    1
    38    19    12    1
    39    90    87    1
    40    79    78   ar
    41    16    18    1
    42    16    14    1
    43    18    30    1
    44    89    87    1
    45    87    88    1
    46    23    22    1
    47    75    22    1
    48    75    76   ar
    49    22    24    1
    50    13    12    1
    51    42    41    1
    52    78    76   ar
    53    78     9    1
    54    12    28    1
    55    76    77    1
    56    40    39    1
    57    41    39   ar
    58    41    32   ar
    59     9    83    1
    60    14    15    1
    61    14    25    1
    62    39    37   ar
    63    30    31    1
    64    30    32    1
    65    30    27    1
    66    84    83    1
    67    32    33   ar
    68    24    28    1
    69    24    25    1
    70    24    59    1
    71    28    27    1
    72    28    29    1
    73    83    85    1
    74    83    86    1
    75    25    27    1
    76    25    26    1
    77    37    38    1
    78    37    35   ar
    79    27    67    1
    80    33    35   ar
    81    33    34    1
    82     5    59    2
    83    59     6    1
    84    35    36    1
    85    67     8    1
    86    67     7    2
    87     6    60    1
    88     8    68    1
    89    72    71    1
    90    62    60    1
    91    60    61    1
    92    60    63    1
    93    74    71    1
    94    71    68    1
    95    71    73    1
    96    68    70    1
    97    68    69    1
    98    66    63    1
    99    63    64    1
   100    63    65    1
