@<TRIPOS>MOLECULE
C64 H46 N4 O12, 2(F6 P)
 140 150 0 0 0
SMALL
GASTEIGER

@<TRIPOS>ATOM
      1 O           2.9686    5.6543    8.9912 O.3     1  LIG1       -0.5060
      2 H           3.6067    5.2637    8.6535 H       1  LIG1        0.2922
      3 O           4.1699    4.2413    7.2076 O.2     1  LIG1       -0.2864
      4 O           5.3343    2.6260    5.6077 O.3     1  LIG1       -0.4897
      5 O          -0.4437    3.5673    4.5473 O.2     1  LIG1       -0.2866
      6 O           5.8869    7.0278    5.8328 O.3     1  LIG1       -0.4897
      7 O           6.1458    6.0644    3.4618 O.2     1  LIG1       -0.2864
      8 O           6.3794    4.6590    1.3396 O.3     1  LIG1       -0.4897
      9 O           0.9007    6.6666    2.5618 O.2     1  LIG1       -0.2866
     10 O           6.3371    8.9765    2.0264 O.3     1  LIG1       -0.4897
     11 O           6.0365    8.0327   -0.3627 O.2     1  LIG1       -0.2864
     12 O           5.7079    6.6745   -2.5242 O.3     1  LIG1       -0.5060
     13 H           6.1458    7.0808   -1.9630 H       1  LIG1        0.2922
     14 O           0.7830    9.1021   -0.1278 O.2     1  LIG1       -0.2866
     15 N           8.0321    3.4976    5.7306 N.pl3   1  LIG1       -0.3038
     16 N           8.0658    5.3656    6.8549 N.pl3   1  LIG1       -0.3038
     17 N           8.9006    5.7108    1.5858 N.pl3   1  LIG1       -0.3038
     18 N           8.8745    7.7130    2.4508 N.pl3   1  LIG1       -0.3038
     19 C           4.2327    2.6523    4.7967 C.ar    1  LIG1        0.1321
     20 C           3.0913    3.3312    5.2904 C.ar    1  LIG1        0.0748
     21 C           3.1292    4.0983    6.5504 C.2     1  LIG1        0.2015
     22 C           1.8908    4.7598    7.0196 C.ar    1  LIG1        0.0745
     23 C           1.8973    5.5231    8.1994 C.ar    1  LIG1        0.1283
     24 C           0.7370    6.2095    8.5896 C.ar    1  LIG1       -0.0194
     25 H           0.7377    6.7134    9.3706 H       1  LIG1        0.0654
     26 C          -0.3926    6.1412    7.8294 C.ar    1  LIG1       -0.0576
     27 H          -1.1467    6.6240    8.0852 H       1  LIG1        0.0619
     28 C          -0.4382    5.3655    6.6842 C.ar    1  LIG1       -0.0500
     29 H          -1.2213    5.3109    6.1843 H       1  LIG1        0.0625
     30 C           0.6961    4.6704    6.2886 C.ar    1  LIG1        0.0366
     31 C           0.6345    3.8227    5.0875 C.2     1  LIG1        0.1947
     32 C           1.8930    3.2419    4.5562 C.ar    1  LIG1        0.0366
     33 C           1.8542    2.5965    3.3319 C.ar    1  LIG1       -0.0500
     34 H           1.0591    2.5419    2.8531 H       1  LIG1        0.0625
     35 C           3.0203    2.0293    2.8281 C.ar    1  LIG1       -0.0576
     36 H           3.0108    1.6334    1.9874 H       1  LIG1        0.0619
     37 C           4.1817    2.0442    3.5510 C.ar    1  LIG1       -0.0192
     38 H           4.9461    1.6433    3.2032 H       1  LIG1        0.0654
     39 C           6.4114    1.7351    5.3327 C.3     1  LIG1        0.1053
     40 H           6.1224    1.0637    4.6957 H       1  LIG1        0.0712
     41 H           6.6744    1.2821    6.1486 H       1  LIG1        0.0712
     42 C           7.5818    2.4848    4.7768 C.3     1  LIG1        0.0483
     43 H           8.3053    1.8667    4.5921 H       1  LIG1        0.0498
     44 H           7.3294    2.9105    3.9428 H       1  LIG1        0.0498
     45 C           7.5659    4.7337    5.8012 C.3     1  LIG1        0.1263
     46 H           6.9694    5.1086    5.1944 H       1  LIG1        0.0746
     47 C           8.9430    4.4942    7.5019 C.ar    1  LIG1        0.0526
     48 C           9.7454    4.6431    8.6263 C.ar    1  LIG1       -0.0388
     49 H           9.7684    5.4375    9.1090 H       1  LIG1        0.0637
     50 C          10.5024    3.5559    8.9869 C.ar    1  LIG1       -0.0599
     51 H          11.0495    3.6180    9.7357 H       1  LIG1        0.0618
     52 C          10.4772    2.3619    8.2683 C.ar    1  LIG1       -0.0599
     53 H          11.0150    1.6569    8.5444 H       1  LIG1        0.0618
     54 C           9.6772    2.1981    7.1590 C.ar    1  LIG1       -0.0388
     55 H           9.6503    1.3988    6.6849 H       1  LIG1        0.0637
     56 C           8.9135    3.2977    6.7928 C.ar    1  LIG1        0.0526
     57 C           7.7914    6.7717    7.2106 C.3     1  LIG1        0.0483
     58 H           8.2563    7.3488    6.5852 H       1  LIG1        0.0498
     59 H           8.1486    6.9467    8.0946 H       1  LIG1        0.0498
     60 C           6.3316    7.1230    7.2006 C.3     1  LIG1        0.1053
     61 H           5.8329    6.5073    7.7615 H       1  LIG1        0.0712
     62 H           6.1986    8.0228    7.5375 H       1  LIG1        0.0712
     63 C           4.5699    7.2322    5.5539 C.ar    1  LIG1        0.1321
     64 C           4.0611    6.7557    4.3298 C.ar    1  LIG1        0.0748
     65 C           4.9291    6.0903    3.3080 C.2     1  LIG1        0.2015
     66 C           4.2929    5.5035    2.1050 C.ar    1  LIG1        0.0748
     67 C           5.0395    4.8095    1.1255 C.ar    1  LIG1        0.1321
     68 C           4.4116    4.2845    0.0119 C.ar    1  LIG1       -0.0192
     69 H           4.9135    3.8327   -0.6267 H       1  LIG1        0.0654
     70 C           3.0476    4.4185   -0.1652 C.ar    1  LIG1       -0.0576
     71 H           2.6389    4.0449   -0.9128 H       1  LIG1        0.0619
     72 C           2.2914    5.1036    0.7586 C.ar    1  LIG1       -0.0500
     73 H           1.3753    5.1967    0.6380 H       1  LIG1        0.0625
     74 C           2.9120    5.6510    1.8698 C.ar    1  LIG1        0.0366
     75 C           2.0817    6.4465    2.8172 C.2     1  LIG1        0.1947
     76 C           2.6942    6.9566    4.0578 C.ar    1  LIG1        0.0366
     77 C           1.8804    7.6467    4.9477 C.ar    1  LIG1       -0.0500
     78 H           0.9837    7.7870    4.7483 H       1  LIG1        0.0625
     79 C           2.4039    8.1184    6.1168 C.ar    1  LIG1       -0.0576
     80 H           1.8597    8.5875    6.7057 H       1  LIG1        0.0619
     81 C           3.7357    7.9074    6.4388 C.ar    1  LIG1       -0.0192
     82 H           4.0730    8.2177    7.2477 H       1  LIG1        0.0654
     83 C           7.2216    4.5041    0.1912 C.3     1  LIG1        0.1053
     84 H           7.0576    5.2153   -0.4479 H       1  LIG1        0.0712
     85 H           7.0514    3.6527   -0.2409 H       1  LIG1        0.0712
     86 C           8.6429    4.5649    0.6962 C.3     1  LIG1        0.0483
     87 H           8.8402    3.7445    1.1744 H       1  LIG1        0.0498
     88 H           9.2437    4.6158   -0.0640 H       1  LIG1        0.0498
     89 C           8.4665    6.9554    1.4399 C.3     1  LIG1        0.1263
     90 H           7.9495    7.2545    0.7283 H       1  LIG1        0.0746
     91 C           9.6107    6.9144    3.3250 C.ar    1  LIG1        0.0526
     92 C          10.2623    7.2136    4.5225 C.ar    1  LIG1       -0.0388
     93 H          10.2448    8.0662    4.8933 H       1  LIG1        0.0637
     94 C          10.9328    6.1698    5.1231 C.ar    1  LIG1       -0.0599
     95 H          11.3859    6.3212    5.9208 H       1  LIG1        0.0618
     96 C          10.9490    4.8901    4.5620 C.ar    1  LIG1       -0.0599
     97 H          11.4071    4.2125    5.0043 H       1  LIG1        0.0618
     98 C          10.3106    4.5985    3.3777 C.ar    1  LIG1       -0.0388
     99 H          10.3311    3.7458    3.0056 H       1  LIG1        0.0637
    100 C           9.6359    5.6423    2.7730 C.ar    1  LIG1        0.0526
    101 C           8.5752    9.1324    2.6352 C.3     1  LIG1        0.0483
    102 H           8.6974    9.5953    1.7917 H       1  LIG1        0.0498
    103 H           9.1995    9.5097    3.2747 H       1  LIG1        0.0498
    104 C           7.1740    9.3558    3.1236 C.3     1  LIG1        0.1053
    105 H           6.9905    8.8072    3.9014 H       1  LIG1        0.0712
    106 H           7.0342   10.2867    3.3556 H       1  LIG1        0.0712
    107 C           5.0247    9.2987    2.0589 C.ar    1  LIG1        0.1321
    108 C           4.2425    8.8879    0.9585 C.ar    1  LIG1        0.0748
    109 C           4.8158    8.1866   -0.2217 C.2     1  LIG1        0.2015
    110 C           3.9051    7.6542   -1.2293 C.ar    1  LIG1        0.0745
    111 C           4.3923    6.8971   -2.3158 C.ar    1  LIG1        0.1283
    112 C           3.5142    6.3199   -3.2201 C.ar    1  LIG1       -0.0194
    113 H           3.8484    5.7974   -3.9146 H       1  LIG1        0.0654
    114 C           2.1550    6.5086   -3.1053 C.ar    1  LIG1       -0.0576
    115 H           1.5734    6.1015   -3.7057 H       1  LIG1        0.0619
    116 C           1.6598    7.3116   -2.0858 C.ar    1  LIG1       -0.0500
    117 H           0.7462    7.4730   -2.0269 H       1  LIG1        0.0625
    118 C           2.5072    7.8664   -1.1693 C.ar    1  LIG1        0.0366
    119 C           1.9505    8.7377   -0.1078 C.2     1  LIG1        0.1947
    120 C           2.8573    9.1684    0.9924 C.ar    1  LIG1        0.0366
    121 C           2.2942    9.8361    2.0636 C.ar    1  LIG1       -0.0500
    122 H           1.3810   10.0111    2.0759 H       1  LIG1        0.0625
    123 C           3.0873   10.2395    3.1144 C.ar    1  LIG1       -0.0576
    124 H           2.7041   10.7012    3.8262 H       1  LIG1        0.0619
    125 C           4.4375    9.9702    3.1281 C.ar    1  LIG1       -0.0192
    126 H           4.9570   10.2370    3.8506 H       1  LIG1        0.0654
    127 P           6.8204    7.8343   16.4961 P.3     2  LIG2        0.6235
    128 F           8.0813    7.2173   17.2412 F       2  LIG2       -0.1039
    129 F           7.7475    8.9664   15.8570 F       2  LIG2       -0.1039
    130 F           7.0926    6.8866   15.2467 F       2  LIG2       -0.1039
    131 F           5.5532    8.4520   15.7578 F       2  LIG2       -0.1039
    132 F           5.8838    6.7105   17.1488 F       2  LIG2       -0.1039
    133 F           6.5387    8.7813   17.7593 F       2  LIG2       -0.1039
    134 P           6.7961    5.6574   10.9571 P.3     3  LIG3        0.6235
    135 F           7.8762    4.5858   11.4589 F       3  LIG3       -0.1039
    136 F           7.9900    6.6444   10.5495 F       3  LIG3       -0.1039
    137 F           6.8298    4.9982    9.5001 F       3  LIG3       -0.1039
    138 F           5.7427    6.7336   10.4618 F       3  LIG3       -0.1039
    139 F           5.6237    4.6574   11.3576 F       3  LIG3       -0.1039
    140 F           6.7886    6.2889   12.4214 F       3  LIG3       -0.1039
@<TRIPOS>BOND
     1   113   112    1
     2   115   114    1
     3   112   114   ar
     4   112   111   ar
     5   114   116   ar
     6    12   111    1
     7    12    13    1
     8   111   110   ar
     9   116   117    1
    10   116   118   ar
    11   110   118   ar
    12   110   109    1
    13   118   119    1
    14    71    70    1
    15    69    68    1
    16    84    83    1
    17    11   109    2
    18    85    83    1
    19   109   108    1
    20    70    68   ar
    21    70    72   ar
    22    14   119    2
    23   119   120    1
    24    88    86    1
    25    68    67   ar
    26    83    86    1
    27    83     8    1
    28    73    72    1
    29    86    87    1
    30    86    17    1
    31    90    89    1
    32    72    74   ar
    33   108   120   ar
    34   108   107   ar
    35   120   121   ar
    36    67     8    1
    37    67    66   ar
    38    89    17    1
    39    89    18    1
    40    17   100    1
    41   102   101    1
    42    74    66   ar
    43    74    75    1
    44    36    35    1
    45    10   107    1
    46    10   104    1
    47   107   125   ar
    48   121   122    1
    49   121   123   ar
    50    66    65    1
    51    18   101    1
    52    18    91    1
    53     9    75    2
    54   101   104    1
    55   101   103    1
    56   100    91   ar
    57   100    98   ar
    58    75    76    1
    59    35    33   ar
    60    35    37   ar
    61    34    33    1
    62    99    98    1
    63   123   125   ar
    64   123   124    1
    65   104   106    1
    66   104   105    1
    67   125   126    1
    68    38    37    1
    69    65     7    2
    70    65    64    1
    71    91    92   ar
    72    33    32   ar
    73    98    96   ar
    74    37    19   ar
    75    44    42    1
    76    76    64   ar
    77    76    77   ar
    78    64    63   ar
    79    92    93    1
    80    92    94   ar
    81     5    31    2
    82    32    31    1
    83    32    20   ar
    84    96    97    1
    85    96    94   ar
    86    43    42    1
    87    40    39    1
    88    78    77    1
    89    42    39    1
    90    42    15    1
    91    19    20   ar
    92    19     4    1
    93    77    79   ar
    94    31    30    1
    95    94    95    1
    96    46    45    1
    97    20    21    1
    98    39     4    1
    99    39    41    1
   100    63     6    1
   101    63    81   ar
   102    15    45    1
   103    15    56    1
   104    45    16    1
   105     6    60    1
   106    79    81   ar
   107    79    80    1
   108    29    28    1
   109    30    28   ar
   110    30    22   ar
   111    81    82    1
   112    21    22    1
   113    21     3    2
   114    58    57    1
   115    28    26   ar
   116    55    54    1
   117    56    54   ar
   118    56    47   ar
   119    16    57    1
   120    16    47    1
   121    22    23   ar
   122    54    52   ar
   123    60    57    1
   124    60    62    1
   125    60    61    1
   126    57    59    1
   127    47    48   ar
   128    26    27    1
   129    26    24   ar
   130    23    24   ar
   131    23     1    1
   132    52    53    1
   133    52    50   ar
   134    24    25    1
   135    48    50   ar
   136    48    49    1
   137     2     1    1
   138    50    51    1
   139   137   134    1
   140   138   134    1
   141   136   134    1
   142   134   139    1
   143   134   135    1
   144   134   140    1
   145   130   127    1
   146   131   127    1
   147   129   127    1
   148   127   132    1
   149   127   128    1
   150   127   133    1
