@<TRIPOS>MOLECULE
7057187.cif
 62 68 0 0 0
SMALL
GASTEIGER

@<TRIPOS>ATOM
      1 C           7.3843    4.5522   -3.2075 C.ar    1  LIG1       -0.0534
      2 H           6.5949    4.0776   -3.0820 H       1  LIG1        0.0624
      3 C           7.6371    5.1125   -4.4299 C.ar    1  LIG1       -0.0611
      4 H           7.0271    5.0094   -5.1245 H       1  LIG1        0.0618
      5 C           8.7992    5.8306   -4.6318 C.ar    1  LIG1       -0.0611
      6 H           8.9713    6.2132   -5.4617 H       1  LIG1        0.0618
      7 C           9.6914    5.9784   -3.6170 C.ar    1  LIG1       -0.0534
      8 H          10.4626    6.4779   -3.7638 H       1  LIG1        0.0624
      9 C           9.4845    5.3979   -2.3485 C.ar    1  LIG1       -0.0096
     10 C           8.2856    4.6761   -2.1381 C.ar    1  LIG1       -0.0090
     11 C          10.4401    5.4893   -1.2733 C.ar    1  LIG1       -0.0096
     12 C          11.6553    6.1983   -1.4120 C.ar    1  LIG1       -0.0534
     13 H          11.8521    6.6121   -2.2213 H       1  LIG1        0.0624
     14 C          12.5449    6.2865   -0.3812 C.ar    1  LIG1       -0.0611
     15 H          13.3273    6.7773   -0.4883 H       1  LIG1        0.0618
     16 C          12.2928    5.6542    0.8196 C.ar    1  LIG1       -0.0611
     17 H          12.9137    5.7076    1.5102 H       1  LIG1        0.0618
     18 C          11.1263    4.9435    1.0029 C.ar    1  LIG1       -0.0534
     19 H          10.9628    4.5236    1.8167 H       1  LIG1        0.0624
     20 C          10.1789    4.8513   -0.0387 C.ar    1  LIG1       -0.0090
     21 C           8.9314    4.1391    0.1581 C.ar    1  LIG1       -0.0019
     22 C           8.0239    4.0689   -0.8516 C.ar    1  LIG1       -0.0019
     23 C           8.6553    3.4924    1.4761 C.ar    1  LIG1       -0.0167
     24 C           9.1331    2.2326    1.7492 C.ar    1  LIG1       -0.0540
     25 H           9.6499    1.7903    1.1143 H       1  LIG1        0.0624
     26 C           8.8574    1.6151    2.9515 C.ar    1  LIG1       -0.0612
     27 H           9.1841    0.7603    3.1201 H       1  LIG1        0.0618
     28 C           8.1091    2.2537    3.8928 C.ar    1  LIG1       -0.0617
     29 H           7.9197    1.8388    4.7037 H       1  LIG1        0.0618
     30 C           7.6394    3.5048    3.6362 C.ar    1  LIG1       -0.0612
     31 H           7.1339    3.9459    4.2814 H       1  LIG1        0.0618
     32 C           7.9005    4.1260    2.4397 C.ar    1  LIG1       -0.0540
     33 H           7.5674    4.9795    2.2785 H       1  LIG1        0.0624
     34 C           6.7203    3.3763   -0.6422 C.ar    1  LIG1       -0.0167
     35 C           5.5894    4.1049   -0.3463 C.ar    1  LIG1       -0.0537
     36 H           5.6369    5.0330   -0.3255 H       1  LIG1        0.0624
     37 C           4.3912    3.4824   -0.0808 C.ar    1  LIG1       -0.0565
     38 H           3.6396    4.0005    0.0953 H       1  LIG1        0.0621
     39 C           4.2793    2.1144   -0.0701 C.ar    1  LIG1       -0.0304
     40 C           5.3978    1.3890   -0.3764 C.ar    1  LIG1       -0.0565
     41 H           5.3485    0.4609   -0.3856 H       1  LIG1        0.0621
     42 C           6.6005    2.0040   -0.6727 C.ar    1  LIG1       -0.0537
     43 H           7.3392    1.4834   -0.8959 H       1  LIG1        0.0624
     44 C           2.9768    1.4238    0.2840 C.3     1  LIG1        0.0344
     45 H           2.4589    1.2958   -0.5264 H       1  LIG1        0.0511
     46 H           3.1759    0.5467    0.6466 H       1  LIG1        0.0511
     47 C           2.5841    2.4376    2.4880 C.ar    1  LIG1        0.0588
     48 C           3.7715    2.0003    3.0539 C.ar    1  LIG1       -0.0364
     49 H           4.3148    1.4225    2.5703 H       1  LIG1        0.0637
     50 C           4.1714    2.3991    4.3169 C.ar    1  LIG1       -0.0274
     51 H           4.9811    2.0785    4.6421 H       1  LIG1        0.0642
     52 C           3.4396    3.2389    5.1179 C.ar    1  LIG1        0.1570
     53 C           2.1925    3.7061    4.6248 C.ar    1  LIG1        0.1660
     54 C           1.7810    3.2936    3.3256 C.ar    1  LIG1        0.1571
     55 N           2.1668    2.1593    1.2486 N.pl3   1  LIG1       -0.3379
     56 H           1.3846    2.4264    1.0088 H       1  LIG1        0.1465
     57 N           0.6293    3.8410    3.0311 N.ar    1  LIG1       -0.0470
     58 N           1.2676    4.5061    5.1333 N.ar    1  LIG1       -0.0465
     59 N           3.9600    3.6763    6.3759 N.pl3   1  LIG1        0.0587
     60 O           0.3016    4.5854    4.1321 O.2     1  LIG1       -0.2414
     61 O           3.3069    4.4950    7.0074 O.2     1  LIG1       -0.1261
     62 O           5.0596    3.2476    6.7325 O.2     1  LIG1       -0.1261
@<TRIPOS>BOND
     1     6     5    1
     2     4     3    1
     3     5     3   ar
     4     5     7   ar
     5     3     1   ar
     6     8     7    1
     7     7     9   ar
     8     1     2    1
     9     1    10   ar
    10     9    10   ar
    11     9    11   ar
    12    13    12    1
    13    10    22   ar
    14    12    11   ar
    15    12    14   ar
    16    11    20   ar
    17    43    42    1
    18    22    34    1
    19    22    21   ar
    20    42    34   ar
    21    42    40   ar
    22    34    35   ar
    23    45    44    1
    24    15    14    1
    25    41    40    1
    26    14    16   ar
    27    40    39   ar
    28    35    36    1
    29    35    37   ar
    30    37    39   ar
    31    37    38    1
    32    39    44    1
    33    20    21   ar
    34    20    18   ar
    35    21    23    1
    36    44    46    1
    37    44    55    1
    38    16    18   ar
    39    16    17    1
    40    18    19    1
    41    56    55    1
    42    25    24    1
    43    55    47    1
    44    23    24   ar
    45    23    32   ar
    46    24    26   ar
    47    33    32    1
    48    32    30   ar
    49    47    48   ar
    50    47    54   ar
    51    49    48    1
    52    26    27    1
    53    26    28   ar
    54    57    54   ar
    55    57    60   ar
    56    48    50   ar
    57    54    53   ar
    58    30    28   ar
    59    30    31    1
    60    28    29    1
    61    60    58   ar
    62    50    51    1
    63    50    52   ar
    64    53    52   ar
    65    53    58   ar
    66    52    59    1
    67    59    62    2
    68    59    61    2
