@<TRIPOS>MOLECULE
C8 H4 N O4, C2 H8 N
 29 28 0 0 0
SMALL
GASTEIGER

@<TRIPOS>ATOM
      1 O           5.7817    9.0322    4.6404 O.3     1  LIG1       -0.4771
      2 O           2.8073    4.6130    1.0747 O.3     1  LIG1       -0.4771
      3 O           4.5833    8.8414    6.5217 O.2     1  LIG1       -0.2451
      4 O           4.5459    5.9841    0.8453 O.2     1  LIG1       -0.2451
      5 N           0.6671    6.0528    5.5393 N.pl3   1  LIG1       -0.1293
      6 N           5.8324    9.0506    8.8984 N.4     1  LIG1        0.2226
      7 C           4.7915    8.5807    5.3296 C.2     1  LIG1        0.3369
      8 C           3.8385    7.6611    4.6225 C.ar    1  LIG1        0.0615
      9 C           1.8000    6.3751    4.7285 C.ar    1  LIG1        0.0739
     10 C           2.0798    5.8043    3.4802 C.ar    1  LIG1       -0.0232
     11 C           2.6735    7.2943    5.2853 C.ar    1  LIG1       -0.0232
     12 C           4.1126    7.1029    3.3766 C.ar    1  LIG1       -0.0337
     13 C           3.2343    6.1741    2.8098 C.ar    1  LIG1        0.0615
     14 C           3.5733    5.5644    1.4775 C.2     1  LIG1        0.3369
     15 C           5.7156   10.5272    8.9274 C.3     1  LIG1       -0.0451
     16 C           7.2198    8.5647    8.9213 C.3     1  LIG1       -0.0451
     17 H           1.4774    5.1777    3.1113 H       1  LIG1        0.0645
     18 H           4.9211    7.3260    2.9135 H       1  LIG1        0.0634
     19 H           2.4855    7.6642    6.1269 H       1  LIG1        0.0645
     20 H           7.1938    7.5555    8.8500 H       1  LIG1        0.0777
     21 H           6.0789   10.8441    8.0629 H       1  LIG1        0.0777
     22 H           5.3788    8.7086    8.0629 H       1  LIG1        0.2008
     23 H           5.3956    8.6955    9.6690 H       1  LIG1        0.2008
     24 H           7.6128    8.8012    9.7541 H       1  LIG1        0.0777
     25 H           4.7040   10.7108    9.0095 H       1  LIG1        0.0777
     26 H           7.7111    8.9936    8.1373 H       1  LIG1        0.0777
     27 H           6.2255   10.8616    9.6903 H       1  LIG1        0.0777
     28 H           6.5617    9.7138    5.3185 H       1  LIG1        0.2954
     29 H           3.1801    4.1386    0.0000 H       1  LIG1        0.2954
@<TRIPOS>BOND
     1    29     2    1
     2     4    14    2
     3     2    14    1
     4    14    13    1
     5    13    12   ar
     6    13    10   ar
     7    18    12    1
     8    17    10    1
     9    12     8   ar
    10    10     9   ar
    11     8    11   ar
    12     8     7    1
    13     1    28    1
    14     1     7    1
    15     9    11   ar
    16     9     5    1
    17    11    19    1
    18     7     3    2
    19    21    15    1
    20    22     6    1
    21    26    16    1
    22    20    16    1
    23     6    16    1
    24     6    15    1
    25     6    23    1
    26    16    24    1
    27    15    25    1
    28    15    27    1
