@<TRIPOS>MOLECULE
C18 H12 N2 S
 33 36 0 0 0
SMALL
GASTEIGER

@<TRIPOS>ATOM
      1 S           4.4102    1.5181    0.7081 S.2     1  LIG1        0.1165
      2 N           3.8850    3.0344    0.6622 N.ar    1  LIG1       -0.1901
      3 N           5.9898    1.7192    0.4356 N.ar    1  LIG1       -0.1901
      4 C           4.9642    3.8076    0.4100 C.ar    1  LIG1        0.1081
      5 C           6.1813    3.0465    0.2872 C.ar    1  LIG1        0.1081
      6 C           7.4414    3.6978    0.0870 C.ar    1  LIG1        0.0103
      7 C           7.3956    5.0652   -0.0029 C.ar    1  LIG1       -0.0513
      8 C           6.2032    5.8094    0.1074 C.ar    1  LIG1       -0.0513
      9 C           4.9727    5.2423    0.3208 C.ar    1  LIG1        0.0103
     10 C           8.7384    2.9861    0.0044 C.ar    1  LIG1       -0.0158
     11 C           8.8912    1.8187   -0.7404 C.ar    1  LIG1       -0.0540
     12 C          10.1448    1.2391   -0.8931 C.ar    1  LIG1       -0.0612
     13 C          11.2544    1.8124   -0.2894 C.ar    1  LIG1       -0.0617
     14 C          11.1110    2.9484    0.4809 C.ar    1  LIG1       -0.0612
     15 C           9.8589    3.5346    0.6300 C.ar    1  LIG1       -0.0540
     16 C           3.7555    6.0722    0.4751 C.ar    1  LIG1       -0.0158
     17 C           2.5005    5.6594    0.0168 C.ar    1  LIG1       -0.0540
     18 C           1.3924    6.4809    0.1747 C.ar    1  LIG1       -0.0612
     19 C           1.5134    7.7156    0.7930 C.ar    1  LIG1       -0.0617
     20 C           2.7506    8.1382    1.2490 C.ar    1  LIG1       -0.0612
     21 C           3.8574    7.3248    1.0882 C.ar    1  LIG1       -0.0540
     22 H           8.2086    5.5351   -0.1461 H       1  LIG1        0.0624
     23 H           6.2547    6.7546    0.0294 H       1  LIG1        0.0624
     24 H           8.1327    1.4158   -1.1463 H       1  LIG1        0.0624
     25 H          10.2422    0.4492   -1.4120 H       1  LIG1        0.0618
     26 H          12.1130    1.4230   -0.4059 H       1  LIG1        0.0618
     27 H          11.8682    3.3302    0.9088 H       1  LIG1        0.0618
     28 H           9.7653    4.3157    1.1628 H       1  LIG1        0.0624
     29 H           2.4056    4.8131   -0.4039 H       1  LIG1        0.0624
     30 H           0.5444    6.1943   -0.1433 H       1  LIG1        0.0618
     31 H           0.7499    8.2701    0.9039 H       1  LIG1        0.0618
     32 H           2.8389    8.9846    1.6713 H       1  LIG1        0.0618
     33 H           4.7038    7.6231    1.3997 H       1  LIG1        0.0624
@<TRIPOS>BOND
     1    25    12    1
     2    24    11    1
     3    12    11   ar
     4    12    13   ar
     5    11    10   ar
     6    26    13    1
     7    29    17    1
     8    13    14   ar
     9    22     7    1
    10    30    18    1
    11     7     6   ar
    12     7     8   ar
    13    10     6    1
    14    10    15   ar
    15    17    18   ar
    16    17    16   ar
    17    23     8    1
    18     6     5   ar
    19     8     9   ar
    20    18    19   ar
    21     5     4   ar
    22     5     3   ar
    23     9     4   ar
    24     9    16    1
    25     4     2   ar
    26     3     1   ar
    27    16    21   ar
    28    14    15   ar
    29    14    27    1
    30    15    28    1
    31     2     1   ar
    32    19    31    1
    33    19    20   ar
    34    21    20   ar
    35    21    33    1
    36    20    32    1
