@<TRIPOS>MOLECULE
C31 H23 N3 O S
 118 128 0 0 0
SMALL
GASTEIGER

@<TRIPOS>ATOM
      1 S           3.3988    9.2598   10.9544 S.2     1  LIG1        0.1165
      2 S          -0.9480    9.6118   11.0809 S.2     2  LIG2        0.1165
      3 O           7.2808    3.6176   15.2271 O.3     1  LIG1       -0.4951
      4 O           2.3477    3.5756   15.2576 O.3     2  LIG2       -0.4951
      5 N           3.8586    9.2856    9.4057 N.ar    1  LIG1       -0.1901
      6 N           4.3342    8.0790   11.5362 N.ar    1  LIG1       -0.1901
      7 N           4.3581   10.5135    3.0637 N.pl3   1  LIG1       -0.2692
      8 N          -0.6990    9.4876    9.4916 N.ar    2  LIG2       -0.1901
      9 N          -0.2191    8.2775   11.6183 N.ar    2  LIG2       -0.1901
     10 N          -0.4633   10.3798    2.9808 N.pl3   2  LIG2       -0.2692
     11 C           4.8070    8.3287    9.2752 C.ar    1  LIG1        0.1081
     12 C           5.0917    7.6431   10.5028 C.ar    1  LIG1        0.1081
     13 C           6.0743    6.5933   10.5751 C.ar    1  LIG1        0.0103
     14 C           6.7519    6.3528    9.4008 C.ar    1  LIG1       -0.0513
     15 H           7.4466    5.7036    9.4067 H       1  LIG1        0.0624
     16 C           6.4686    7.0221    8.1858 C.ar    1  LIG1       -0.0513
     17 H           6.9762    6.7896    7.4158 H       1  LIG1        0.0624
     18 C           5.4998    7.9905    8.0572 C.ar    1  LIG1        0.0103
     19 C           6.3274    5.7981   11.7914 C.ar    1  LIG1       -0.0155
     20 C           6.3398    6.3722   13.0747 C.ar    1  LIG1       -0.0505
     21 H           6.1365    7.2943   13.1747 H       1  LIG1        0.0625
     22 C           6.6441    5.6172   14.1933 C.ar    1  LIG1       -0.0194
     23 H           6.6468    6.0224   15.0530 H       1  LIG1        0.0654
     24 C           6.9461    4.2613   14.0614 C.ar    1  LIG1        0.1201
     25 C           6.8866    3.6541   12.8113 C.ar    1  LIG1       -0.0194
     26 H           7.0529    2.7224   12.7204 H       1  LIG1        0.0654
     27 C           6.5819    4.4273   11.6983 C.ar    1  LIG1       -0.0505
     28 H           6.5454    4.0100   10.8460 H       1  LIG1        0.0625
     29 C           7.7839    2.2880   15.1097 C.3     1  LIG1        0.0788
     30 H           8.5340    2.2769   14.4804 H       1  LIG1        0.0660
     31 H           7.0732    1.6977   14.7820 H       1  LIG1        0.0660
     32 H           8.0898    1.9757   15.9864 H       1  LIG1        0.0660
     33 C           5.1856    8.6203    6.7624 C.ar    1  LIG1       -0.0157
     34 C           3.8906    9.0550    6.4432 C.ar    1  LIG1       -0.0522
     35 H           3.1918    8.9509    7.0779 H       1  LIG1        0.0624
     36 C           3.6168    9.6351    5.2138 C.ar    1  LIG1       -0.0394
     37 H           2.7318    9.9188    5.0145 H       1  LIG1        0.0636
     38 C           4.6294    9.8081    4.2613 C.ar    1  LIG1        0.0388
     39 C           5.9080    9.3297    4.5541 C.ar    1  LIG1       -0.0394
     40 H           6.5976    9.3971    3.9036 H       1  LIG1        0.0636
     41 C           6.1769    8.7596    5.7813 C.ar    1  LIG1       -0.0522
     42 H           7.0575    8.4534    5.9670 H       1  LIG1        0.0624
     43 C           3.6951   11.7716    3.1715 C.ar    1  LIG1        0.0388
     44 C           2.8387   12.2333    2.1787 C.ar    1  LIG1       -0.0400
     45 H           2.6728   11.6942    1.4144 H       1  LIG1        0.0636
     46 C           2.2253   13.4710    2.2925 C.ar    1  LIG1       -0.0600
     47 H           1.6669   13.7879    1.5920 H       1  LIG1        0.0618
     48 C           2.4223   14.2463    3.4248 C.ar    1  LIG1       -0.0616
     49 H           1.9943   15.0908    3.5084 H       1  LIG1        0.0618
     50 C           3.2470   13.7817    4.4304 C.ar    1  LIG1       -0.0600
     51 H           3.3707   14.3031    5.2149 H       1  LIG1        0.0618
     52 C           3.8952   12.5623    4.3075 C.ar    1  LIG1       -0.0400
     53 H           4.4775   12.2641    4.9954 H       1  LIG1        0.0636
     54 C           4.8187   10.0131    1.8174 C.ar    1  LIG1        0.0388
     55 C           4.9269    8.6350    1.6091 C.ar    1  LIG1       -0.0400
     56 H           4.7538    8.0351    2.3250 H       1  LIG1        0.0636
     57 C           5.2868    8.1373    0.3615 C.ar    1  LIG1       -0.0600
     58 H           5.3763    7.1998    0.2367 H       1  LIG1        0.0618
     59 C           5.5141    8.9993   -0.7021 C.ar    1  LIG1       -0.0616
     60 H           5.7087    8.6568   -1.5671 H       1  LIG1        0.0618
     61 C           5.4538   10.3674   -0.4854 C.ar    1  LIG1       -0.0600
     62 H           5.6262   10.9650   -1.2026 H       1  LIG1        0.0618
     63 C           5.1432   10.8730    0.7672 C.ar    1  LIG1       -0.0400
     64 H           5.1515   11.8111    0.9124 H       1  LIG1        0.0636
     65 C          -0.0066    8.3449    9.3031 C.ar    2  LIG2        0.1081
     66 C           0.2611    7.6345   10.5299 C.ar    2  LIG2        0.1081
     67 C           0.9837    6.3947   10.5371 C.ar    2  LIG2        0.0103
     68 C           1.3577    5.9316    9.2945 C.ar    2  LIG2       -0.0513
     69 H           1.8216    5.1035    9.2445 H       2  LIG2        0.0624
     70 C           1.0897    6.6224    8.0902 C.ar    2  LIG2       -0.0513
     71 H           1.3791    6.2321    7.2745 H       2  LIG2        0.0624
     72 C           0.4296    7.8322    8.0358 C.ar    2  LIG2        0.0103
     73 C           1.3432    5.6662   11.7719 C.ar    2  LIG2       -0.0155
     74 C           0.4429    5.4972   12.8372 C.ar    2  LIG2       -0.0505
     75 H          -0.4279    5.8718   12.7777 H       2  LIG2        0.0625
     76 C           0.8078    4.7894   13.9761 C.ar    2  LIG2       -0.0194
     77 H           0.1824    4.6756   14.6827 H       2  LIG2        0.0654
     78 C           2.0872    4.2459   14.0873 C.ar    2  LIG2        0.1201
     79 C           2.9970    4.4009   13.0512 C.ar    2  LIG2       -0.0194
     80 H           3.8709    4.0361   13.1213 H       2  LIG2        0.0654
     81 C           2.6162    5.0970   11.9082 C.ar    2  LIG2       -0.0505
     82 H           3.2391    5.1892   11.1972 H       2  LIG2        0.0625
     83 C           3.6483    3.0044   15.4189 C.3     2  LIG2        0.0788
     84 H           4.3240    3.7134   15.3737 H       2  LIG2        0.0660
     85 H           3.8105    2.3540   14.7037 H       2  LIG2        0.0660
     86 H           3.7026    2.5563   16.2880 H       2  LIG2        0.0660
     87 C           0.1883    8.5293    6.7574 C.ar    2  LIG2       -0.0157
     88 C           0.2052    9.9224    6.6210 C.ar    2  LIG2       -0.0522
     89 H           0.3438   10.4600    7.3910 H       2  LIG2        0.0624
     90 C           0.0234   10.5424    5.3896 C.ar    2  LIG2       -0.0394
     91 H           0.0735   11.4889    5.3275 H       2  LIG2        0.0636
     92 C          -0.2304    9.7852    4.2389 C.ar    2  LIG2        0.0388
     93 C          -0.2446    8.3893    4.3590 C.ar    2  LIG2       -0.0394
     94 H          -0.4037    7.8537    3.5905 H       2  LIG2        0.0636
     95 C          -0.0291    7.7833    5.5841 C.ar    2  LIG2       -0.0522
     96 H          -0.0287    6.8351    5.6349 H       2  LIG2        0.0624
     97 C          -1.0973   11.6462    2.8272 C.ar    2  LIG2        0.0388
     98 C          -0.8241   12.4132    1.6874 C.ar    2  LIG2       -0.0400
     99 H          -0.2130   12.0887    1.0365 H       2  LIG2        0.0636
    100 C          -1.4396   13.6447    1.5000 C.ar    2  LIG2       -0.0600
    101 H          -1.2454   14.1536    0.7215 H       2  LIG2        0.0618
    102 C          -2.3316   14.1377    2.4347 C.ar    2  LIG2       -0.0616
    103 H          -2.7472   14.9815    2.3059 H       2  LIG2        0.0618
    104 C          -2.6092   13.3832    3.5603 C.ar    2  LIG2       -0.0600
    105 H          -3.2229   13.7141    4.2051 H       2  LIG2        0.0618
    106 C          -2.0053   12.1499    3.7596 C.ar    2  LIG2       -0.0400
    107 H          -2.2111   11.6443    4.5373 H       2  LIG2        0.0636
    108 C          -0.1054    9.6481    1.7943 C.ar    2  LIG2        0.0388
    109 C           1.1930    9.1817    1.6286 C.ar    2  LIG2       -0.0400
    110 H           1.8385    9.3185    2.3116 H       2  LIG2        0.0636
    111 C           1.5461    8.5131    0.4598 C.ar    2  LIG2       -0.0600
    112 H           2.4297    8.1831    0.3493 H       2  LIG2        0.0618
    113 C           0.6079    8.3284   -0.5433 C.ar    2  LIG2       -0.0616
    114 H           0.8536    7.8950   -1.3515 H       2  LIG2        0.0618
    115 C          -0.6888    8.7783   -0.3625 C.ar    2  LIG2       -0.0600
    116 H          -1.3359    8.6397   -1.0441 H       2  LIG2        0.0618
    117 C          -1.0493    9.4294    0.8036 C.ar    2  LIG2       -0.0400
    118 H          -1.9436    9.7265    0.9258 H       2  LIG2        0.0636
@<TRIPOS>BOND
     1    60    59    1
     2   114   113    1
     3    62    61    1
     4   116   115    1
     5    59    61   ar
     6    59    57   ar
     7   113   115   ar
     8   113   111   ar
     9    61    63   ar
    10   115   117   ar
    11    58    57    1
    12   112   111    1
    13    57    55   ar
    14   111   109   ar
    15   101   100    1
    16    63    64    1
    17    63    54   ar
    18   117   118    1
    19   117   108   ar
    20    99    98    1
    21    45    44    1
    22   100    98   ar
    23   100   102   ar
    24    47    46    1
    25    55    54   ar
    26    55    56    1
    27   109   108   ar
    28   109   110    1
    29    98    97   ar
    30   108    10    1
    31    54     7    1
    32    44    46   ar
    33    44    43   ar
    34    46    48   ar
    35   103   102    1
    36   102   104   ar
    37    97    10    1
    38    97   106   ar
    39    10    92    1
    40     7    43    1
    41     7    38    1
    42    43    52   ar
    43    48    49    1
    44    48    50   ar
    45   104   106   ar
    46   104   105    1
    47    94    93    1
    48   106   107    1
    49    40    39    1
    50    92    93   ar
    51    92    90   ar
    52    38    39   ar
    53    38    36   ar
    54    52    50   ar
    55    52    53    1
    56    93    95   ar
    57    50    51    1
    58    39    41   ar
    59    37    36    1
    60    36    34   ar
    61    91    90    1
    62    90    88   ar
    63    95    96    1
    64    95    87   ar
    65    41    42    1
    66    41    33   ar
    67    34    33   ar
    68    34    35    1
    69    88    87   ar
    70    88    89    1
    71    87    72    1
    72    33    18    1
    73    71    70    1
    74    17    16    1
    75    72    70   ar
    76    72    65   ar
    77    18    16   ar
    78    18    11   ar
    79    70    68   ar
    80    16    14   ar
    81    69    68    1
    82    11     5   ar
    83    11    12   ar
    84    68    67   ar
    85    65     8   ar
    86    65    66   ar
    87    14    15    1
    88    14    13   ar
    89     5     1   ar
    90     8     2   ar
    91    12    13   ar
    92    12     6   ar
    93    66    67   ar
    94    66     9   ar
    95    67    73    1
    96    13    19    1
    97    28    27    1
    98     1     6   ar
    99     2     9   ar
   100    82    81    1
   101    27    19   ar
   102    27    25   ar
   103    73    81   ar
   104    73    74   ar
   105    19    20   ar
   106    81    79   ar
   107    26    25    1
   108    75    74    1
   109    25    24   ar
   110    74    76   ar
   111    79    80    1
   112    79    78   ar
   113    20    21    1
   114    20    22   ar
   115    76    78   ar
   116    76    77    1
   117    24    22   ar
   118    24     3    1
   119    78     4    1
   120    22    23    1
   121    30    29    1
   122    85    83    1
   123    31    29    1
   124    29     3    1
   125    29    32    1
   126     4    83    1
   127    84    83    1
   128    83    86    1
