@<TRIPOS>MOLECULE
7059651.cif
 33 34 0 0 0
SMALL
GASTEIGER

@<TRIPOS>ATOM
      1 C           8.5215    4.2513    3.1649 C.ar    1  LIG1        0.1262
      2 C           8.7451    3.0295    3.7455 C.ar    1  LIG1       -0.0309
      3 H           8.2813    2.2751    3.4598 H       1  LIG1        0.0640
      4 C           9.6703    2.9447    4.7599 C.ar    1  LIG1       -0.0503
      5 H           9.8453    2.1185    5.1495 H       1  LIG1        0.0625
      6 C          10.3477    4.0687    5.2132 C.ar    1  LIG1        0.0026
      7 C          10.1017    5.2868    4.5919 C.ar    1  LIG1       -0.0503
      8 H          10.5520    6.0475    4.8811 H       1  LIG1        0.0625
      9 C           9.1986    5.3841    3.5533 C.ar    1  LIG1       -0.0309
     10 H           9.0518    6.1966    3.1254 H       1  LIG1        0.0640
     11 C          11.2822    3.9771    6.3519 C.2     1  LIG1        0.0962
     12 C          11.5148    5.1799    7.1948 C.ar    1  LIG1        0.0024
     13 C          10.4512    5.7854    7.8462 C.ar    1  LIG1       -0.0525
     14 H           9.5916    5.4436    7.7463 H       1  LIG1        0.0624
     15 C          10.6608    6.8890    8.6407 C.ar    1  LIG1       -0.0611
     16 H           9.9458    7.2886    9.0806 H       1  LIG1        0.0618
     17 C          11.9182    7.3977    8.7833 C.ar    1  LIG1       -0.0617
     18 H          12.0558    8.1403    9.3272 H       1  LIG1        0.0618
     19 C          12.9770    6.8268    8.1355 C.ar    1  LIG1       -0.0611
     20 H          13.8292    7.1856    8.2346 H       1  LIG1        0.0618
     21 C          12.7860    5.7207    7.3362 C.ar    1  LIG1       -0.0525
     22 H          13.5071    5.3364    6.8923 H       1  LIG1        0.0624
     23 C          13.3338    1.5246    7.8599 C.2     1  LIG1        0.3165
     24 N           7.5352    4.3467    2.0871 N.pl3   1  LIG1        0.0564
     25 N          11.8243    2.8233    6.5542 N.2     1  LIG1       -0.1780
     26 N          12.6379    2.6843    7.6289 N.am    1  LIG1       -0.1904
     27 N          13.1459    0.5360    6.9970 N.am    1  LIG1       -0.3120
     28 O           7.4441    5.3971    1.4884 O.2     1  LIG1       -0.1261
     29 O           6.8388    3.3815    1.8479 O.2     1  LIG1       -0.1261
     30 O          14.0861    1.4825    8.8212 O.2     1  LIG1       -0.2513
     31 H          13.6469   -0.2081    7.0582 H       1  LIG1        0.1465
     32 H          12.5623    0.6200    6.4137 H       1  LIG1        0.1465
     33 H          12.7611    3.3305    8.2185 H       1  LIG1        0.1788
@<TRIPOS>BOND
     1    28    24    2
     2    29    24    2
     3    24     1    1
     4    10     9    1
     5     1     9   ar
     6     1     2   ar
     7     3     2    1
     8     9     7   ar
     9     2     4   ar
    10     7     8    1
    11     7     6   ar
    12     4     5    1
    13     4     6   ar
    14     6    11    1
    15    11    25    2
    16    11    12    1
    17    32    27    1
    18    25    26    1
    19    22    21    1
    20    27    31    1
    21    27    23   am
    22    12    21   ar
    23    12    13   ar
    24    21    19   ar
    25    26    23   am
    26    26    33    1
    27    14    13    1
    28    13    15   ar
    29    23    30    2
    30    19    20    1
    31    19    17   ar
    32    15    17   ar
    33    15    16    1
    34    17    18    1
