@<TRIPOS>MOLECULE
(E)-3-(2-chlorophenyl)-1-(2-(phenylsulfonylamine)phenyl)prop-2-en-1-one
 47 49 0 0 0
SMALL
GASTEIGER

@<TRIPOS>ATOM
      1 S           1.6154    3.5792    2.6398 S.O2    1  LIG1        0.0724
      2 O           4.0322    6.3030    1.5516 O.2     1  LIG1       -0.2872
      3 O           9.0811    7.3460    1.5231 O.3     1  LIG1       -0.4945
      4 O           1.3557    2.1866    2.5092 O.2     1  LIG1       -0.1500
      5 O           0.5611    4.5126    2.4035 O.2     1  LIG1       -0.1500
      6 N           2.7930    4.0293    1.5958 N.pl3   1  LIG1       -0.2156
      7 H           2.5840    4.9520    1.4879 H       1  LIG1        0.1737
      8 C           5.2166    4.2484    1.4427 C.ar    1  LIG1        0.0440
      9 C           2.2579    3.8701    4.2626 C.ar    1  LIG1        0.1085
     10 C           4.0718    3.4287    1.5144 C.ar    1  LIG1        0.0588
     11 C           5.1349    5.7303    1.5527 C.2     1  LIG1        0.1879
     12 C           6.3615    6.5343    1.6698 C.2     1  LIG1       -0.0136
     13 H           7.1908    6.1285    1.5520 H       1  LIG1        0.0656
     14 C           8.7151    8.6256    1.7673 C.ar    1  LIG1        0.1272
     15 C           7.3389    8.8497    2.0209 C.ar    1  LIG1        0.0168
     16 C           6.2969    7.8371    1.9420 C.2     1  LIG1       -0.0475
     17 H           5.4389    8.1537    2.1108 H       1  LIG1        0.0626
     18 C           6.4497    3.6060    1.2458 C.ar    1  LIG1       -0.0491
     19 H           7.2193    4.1233    1.1712 H       1  LIG1        0.0625
     20 C           9.6030    9.6906    1.7627 C.ar    1  LIG1       -0.0194
     21 H          10.4999    9.5424    1.5677 H       1  LIG1        0.0654
     22 C           2.3909    2.8414    5.1637 C.ar    1  LIG1       -0.0351
     23 H           2.1584    1.9713    4.9308 H       1  LIG1        0.0637
     24 C           2.6100    5.1642    4.6010 C.ar    1  LIG1       -0.0351
     25 H           2.5217    5.8523    3.9808 H       1  LIG1        0.0637
     26 C           4.1934    2.0504    1.4277 C.ar    1  LIG1       -0.0386
     27 H           3.4327    1.5155    1.4748 H       1  LIG1        0.0637
     28 C           6.9526   10.1576    2.3149 C.ar    1  LIG1       -0.0511
     29 H           6.0577   10.3297    2.4994 H       1  LIG1        0.0625
     30 C           2.8817    3.1302    6.4331 C.ar    1  LIG1       -0.0599
     31 H           2.9713    2.4471    7.0586 H       1  LIG1        0.0618
     32 C           7.8459   11.2035    2.3424 C.ar    1  LIG1       -0.0610
     33 H           7.5597   12.0611    2.5596 H       1  LIG1        0.0618
     34 C           9.1678   10.9625    2.0443 C.ar    1  LIG1       -0.0583
     35 H           9.7732   11.6681    2.0336 H       1  LIG1        0.0619
     36 C           3.2329    4.4096    6.7694 C.ar    1  LIG1       -0.0616
     37 H           3.5687    4.5891    7.6174 H       1  LIG1        0.0618
     38 C           3.0906    5.4254    5.8625 C.ar    1  LIG1       -0.0599
     39 H           3.3212    6.2955    6.0994 H       1  LIG1        0.0618
     40 C           6.5576    2.2462    1.1594 C.ar    1  LIG1       -0.0610
     41 H           7.3881    1.8482    1.0233 H       1  LIG1        0.0618
     42 C           5.4253    1.4690    1.2746 C.ar    1  LIG1       -0.0599
     43 H           5.4971    0.5424    1.2471 H       1  LIG1        0.0618
     44 C          10.4653    7.0727    1.3073 C.3     1  LIG1        0.0788
     45 H          10.7641    7.5347    0.5208 H       1  LIG1        0.0660
     46 H          10.5907    6.1285    1.1908 H       1  LIG1        0.0660
     47 H          10.9725    7.3715    2.0663 H       1  LIG1        0.0660
@<TRIPOS>BOND
     1    45    44    1
     2    41    40    1
     3    40    18   ar
     4    40    42   ar
     5    19    18    1
     6    46    44    1
     7    18     8   ar
     8    43    42    1
     9    42    26   ar
    10    44     3    1
    11    44    47    1
    12    26    27    1
    13    26    10   ar
    14     8    10   ar
    15     8    11    1
    16     7     6    1
    17    10     6    1
    18     3    14    1
    19     2    11    2
    20    13    12    1
    21    11    12    1
    22    21    20    1
    23     6     1    1
    24    12    16    2
    25    20    14   ar
    26    20    34   ar
    27    14    15   ar
    28    16    15    1
    29    16    17    1
    30    15    28   ar
    31    35    34    1
    32    34    32   ar
    33    28    32   ar
    34    28    29    1
    35    32    33    1
    36     5     1    2
    37     4     1    2
    38     1     9    1
    39    25    24    1
    40     9    24   ar
    41     9    22   ar
    42    24    38   ar
    43    23    22    1
    44    22    30   ar
    45    38    39    1
    46    38    36   ar
    47    30    36   ar
    48    30    31    1
    49    36    37    1
