@<TRIPOS>MOLECULE
C26 H20 N6 O6
 87 91 0 0 0
SMALL
GASTEIGER

@<TRIPOS>ATOM
      1 O          12.4328    6.4728   25.2691 O.2     1  LIG1       -0.2522
      2 O          14.8515    5.5491   36.9308 O.2     1  LIG1       -0.2522
      3 O          11.6008    6.9588   18.4177 O.2     1  LIG1       -0.1261
      4 O          12.9800    5.4550   17.8351 O.2     1  LIG1       -0.1261
      5 O          14.5255    6.8451   44.3270 O.2     1  LIG1       -0.1261
      6 O          15.8179    5.2774   43.7955 O.2     1  LIG1       -0.1261
      7 N          13.3589    4.7816   24.0284 N.am    1  LIG1       -0.2692
      8 H          13.7943    4.0446   24.1098 H       1  LIG1        0.1564
      9 N          13.4269    4.6834   26.2873 N.am    1  LIG1       -0.2692
     10 H          13.7620    3.9104   26.1136 H       1  LIG1        0.1564
     11 N          13.7308    7.2387   35.8786 N.am    1  LIG1       -0.2692
     12 H          13.4101    8.0250   36.0151 H       1  LIG1        0.1564
     13 N          13.9583    7.2927   38.1248 N.am    1  LIG1       -0.2692
     14 H          13.5431    8.0389   38.0229 H       1  LIG1        0.1564
     15 N          12.3982    6.0964   18.6880 N.pl3   1  LIG1        0.0564
     16 N          15.0802    6.1693   43.4907 N.pl3   1  LIG1        0.0564
     17 C          13.0944    5.1850   22.7225 C.ar    1  LIG1        0.0349
     18 C          12.3497    6.3018   22.3790 C.ar    1  LIG1       -0.0383
     19 H          12.0051    6.8510   23.0456 H       1  LIG1        0.0637
     20 C          12.1179    6.6005   21.0598 C.ar    1  LIG1       -0.0297
     21 H          11.6047    7.3413   20.8302 H       1  LIG1        0.0641
     22 C          12.6506    5.7962   20.0813 C.ar    1  LIG1        0.1263
     23 C          13.3980    4.6908   20.3979 C.ar    1  LIG1       -0.0297
     24 H          13.7537    4.1557   19.7256 H       1  LIG1        0.0641
     25 C          13.6149    4.3839   21.7175 C.ar    1  LIG1       -0.0383
     26 H          14.1152    3.6319   21.9394 H       1  LIG1        0.0637
     27 C          13.0161    5.4067   25.2086 C.2     1  LIG1        0.3081
     28 C          13.3751    5.0336   27.6405 C.ar    1  LIG1        0.0348
     29 C          14.1336    4.2939   28.5207 C.ar    1  LIG1       -0.0399
     30 H          14.6396    3.5851   28.1951 H       1  LIG1        0.0636
     31 C          14.1654    4.5729   29.8645 C.ar    1  LIG1       -0.0523
     32 H          14.6911    4.0515   30.4272 H       1  LIG1        0.0624
     33 C          13.4203    5.6284   30.4026 C.ar    1  LIG1       -0.0178
     34 C          12.6370    6.3354   29.5077 C.ar    1  LIG1       -0.0523
     35 H          12.1076    7.0268   29.8334 H       1  LIG1        0.0624
     36 C          12.6036    6.0629   28.1550 C.ar    1  LIG1       -0.0399
     37 H          12.0649    6.5690   27.5906 H       1  LIG1        0.0636
     38 C          13.4870    5.9811   31.8361 C.ar    1  LIG1       -0.0178
     39 C          14.5201    5.5417   32.6729 C.ar    1  LIG1       -0.0523
     40 H          15.1689    4.9785   32.3166 H       1  LIG1        0.0624
     41 C          14.6205    5.9009   33.9920 C.ar    1  LIG1       -0.0399
     42 H          15.3177    5.5709   34.5115 H       1  LIG1        0.0636
     43 C          13.6764    6.7633   34.5566 C.ar    1  LIG1        0.0348
     44 C          12.6545    7.2010   33.7506 C.ar    1  LIG1       -0.0399
     45 H          12.0119    7.7710   34.1063 H       1  LIG1        0.0636
     46 C          12.5529    6.8189   32.4291 C.ar    1  LIG1       -0.0523
     47 H          11.8393    7.1321   31.9216 H       1  LIG1        0.0624
     48 C          14.2314    6.5972   36.9620 C.2     1  LIG1        0.3081
     49 C          14.2642    6.9490   39.4383 C.ar    1  LIG1        0.0349
     50 C          14.9787    5.8093   39.8073 C.ar    1  LIG1       -0.0383
     51 H          15.2909    5.2250   39.1546 H       1  LIG1        0.0637
     52 C          15.2215    5.5499   41.1359 C.ar    1  LIG1       -0.0297
     53 H          15.6857    4.7832   41.3838 H       1  LIG1        0.0641
     54 C          14.7781    6.4229   42.0908 C.ar    1  LIG1        0.1263
     55 C          14.0760    7.5528   41.7558 C.ar    1  LIG1       -0.0297
     56 H          13.7744    8.1331   42.4175 H       1  LIG1        0.0641
     57 C          13.8244    7.8179   40.4347 C.ar    1  LIG1       -0.0383
     58 H          13.3546    8.5856   40.2010 H       1  LIG1        0.0637
     59 O          16.2999   10.4730   41.3731 O.2     2  LIG2       -0.2522
     60 O          15.3598   10.6890   34.5496 O.2     2  LIG2       -0.1261
     61 O          16.5762    9.0158   34.0213 O.2     2  LIG2       -0.1261
     62 N          17.2596    8.7409   40.2226 N.am    2  LIG2       -0.2692
     63 H          17.7136    8.0189   40.3355 H       2  LIG2        0.1564
     64 N          17.3750    8.7883   42.4900 N.am    2  LIG2       -0.2692
     65 H          17.7414    8.0193   42.3714 H       2  LIG2        0.1564
     66 N          16.0803    9.7595   34.8425 N.pl3   2  LIG2        0.0564
     67 C          16.9528    9.0706   38.9096 C.ar    2  LIG2        0.0349
     68 C          17.3130    8.1534   37.9254 C.ar    2  LIG2       -0.0383
     69 H          17.7426    7.3657   38.1712 H       2  LIG2        0.0637
     70 C          17.0469    8.3874   36.6058 C.ar    2  LIG2       -0.0297
     71 H          17.3008    7.7706   35.9576 H       2  LIG2        0.0641
     72 C          16.4058    9.5354   36.2505 C.ar    2  LIG2        0.1263
     73 C          16.0333   10.4706   37.1803 C.ar    2  LIG2       -0.0297
     74 H          15.5992   11.2500   36.9170 H       2  LIG2        0.0641
     75 C          16.3107   10.2415   38.5085 C.ar    2  LIG2       -0.0383
     76 H          16.0670   10.8738   39.1453 H       2  LIG2        0.0637
     77 C          16.9240    9.4298   41.3632 C.2     2  LIG2        0.3081
     78 C          17.3041    9.2473   43.8111 C.ar    2  LIG2        0.0348
     79 C          18.1743    8.7057   44.7296 C.ar    2  LIG2       -0.0399
     80 H          18.7885    8.0667   44.4475 H       2  LIG2        0.0636
     81 C          18.1616    9.0796   46.0459 C.ar    2  LIG2       -0.0523
     82 H          18.7683    8.6868   46.6315 H       2  LIG2        0.0624
     83 C          17.2725   10.0255   46.5349 C.ar    2  LIG2       -0.0178
     84 C          16.3993   10.5475   45.6018 C.ar    2  LIG2       -0.0523
     85 H          15.7798   11.1802   45.8852 H       2  LIG2        0.0624
     86 C          16.3956   10.1817   44.2727 C.ar    2  LIG2       -0.0399
     87 H          15.7824   10.5633   43.6867 H       2  LIG2        0.0636
@<TRIPOS>BOND
     1     4    15    2
     2     3    15    2
     3    15    22    1
     4    24    23    1
     5    22    23   ar
     6    22    20   ar
     7    23    25   ar
     8    21    20    1
     9    20    18   ar
    10    25    26    1
    11    25    17   ar
    12    18    17   ar
    13    18    19    1
    14    17     7    1
    15     7     8    1
    16     7    27   am
    17    27     1    2
    18    27     9   am
    19    10     9    1
    20     9    28    1
    21    37    36    1
    22    28    36   ar
    23    28    29   ar
    24    36    34   ar
    25    30    29    1
    26    29    31   ar
    27    34    35    1
    28    34    33   ar
    29    31    33   ar
    30    31    32    1
    31    33    38    1
    32    38    46   ar
    33    38    39   ar
    34    47    46    1
    35    40    39    1
    36    46    44   ar
    37    39    41   ar
    38    44    45    1
    39    44    43   ar
    40    41    42    1
    41    41    43   ar
    42    61    66    2
    43    60    66    2
    44    43    11    1
    45    66    72    1
    46    11    12    1
    47    11    48   am
    48    71    70    1
    49    72    70   ar
    50    72    73   ar
    51    70    68   ar
    52    74    73    1
    53     2    48    2
    54    48    13   am
    55    73    75   ar
    56    68    69    1
    57    68    67   ar
    58    14    13    1
    59    13    49    1
    60    75    67   ar
    61    75    76    1
    62    67    62    1
    63    51    50    1
    64    49    50   ar
    65    49    57   ar
    66    50    52   ar
    67    58    57    1
    68    62    63    1
    69    62    77   am
    70    57    55   ar
    71    52    53    1
    72    52    54   ar
    73    77    59    2
    74    77    64   am
    75    55    54   ar
    76    55    56    1
    77    54    16    1
    78    65    64    1
    79    64    78    1
    80    16     6    2
    81    16     5    2
    82    87    86    1
    83    78    86   ar
    84    78    79   ar
    85    86    84   ar
    86    80    79    1
    87    79    81   ar
    88    84    85    1
    89    84    83   ar
    90    81    83   ar
    91    81    82    1
