@<TRIPOS>MOLECULE
C20 H22 N O4, C H4 O, Cl
 54 56 0 0 0
SMALL
GASTEIGER

@<TRIPOS>ATOM
      1 H           4.8213    7.6311   22.1585 H       1  LIG1        0.2043
      2 O           6.8653   10.3928   32.1301 O.3     1  LIG1       -0.3982
      3 H           6.7767    9.5897   32.2729 H       1  LIG1        0.2090
      4 CL          2.5616    7.4702   22.0172 Cl      2  LIG2        0.0000
      5 O           5.8763    7.3374   28.2553 O.3     1  LIG1       -0.4914
      6 O           5.9235    9.0842   26.1341 O.3     1  LIG1       -0.4910
      7 N           5.6331    7.7745   22.1911 N.4     1  LIG1        0.2445
      8 O           6.0128    4.6296   16.6269 O.3     1  LIG1       -0.4526
      9 C           6.3062    6.4504   21.9339 C.3     1  LIG1        0.0097
     10 H           7.2559    6.5434   22.1585 H       1  LIG1        0.0907
     11 O           6.7201    3.1491   18.2543 O.3     1  LIG1       -0.4526
     12 C           5.8531    7.2696   24.6267 C.ar    1  LIG1        0.0456
     13 C           6.2045    6.0533   20.4768 C.ar    1  LIG1        0.0075
     14 C           5.7928    6.9480   19.4848 C.ar    1  LIG1       -0.0302
     15 C           5.7580    5.9095   24.3362 C.ar    1  LIG1       -0.0298
     16 C           5.4305    8.3681   19.8212 C.3     1  LIG1        0.0133
     17 H           4.4648    8.4542   19.8436 H       1  LIG1        0.0365
     18 H           5.7674    8.9558   19.1282 H       1  LIG1        0.0365
     19 C           5.7100    6.5403   18.1417 C.ar    1  LIG1       -0.0123
     20 H           5.4378    7.1311   17.4773 H       1  LIG1        0.0658
     21 C           6.0412    5.2572   17.8445 C.ar    1  LIG1        0.1665
     22 C           5.9497    8.3111   23.5503 C.3     1  LIG1       -0.0014
     23 H           5.3361    9.0342   23.7543 H       1  LIG1        0.0869
     24 H           6.8478    8.6773   23.5452 H       1  LIG1        0.0869
     25 C           5.7790    5.4525   26.7057 C.ar    1  LIG1       -0.0160
     26 H           5.7587    4.8341   27.4009 H       1  LIG1        0.0655
     27 C           6.4630    4.3748   18.8189 C.ar    1  LIG1        0.1667
     28 C           6.5639    4.7290   20.1271 C.ar    1  LIG1       -0.0074
     29 H           6.8573    4.1233   20.7681 H       1  LIG1        0.0660
     30 C           5.6890    5.4456   22.8981 C.3     1  LIG1        0.0205
     31 H           4.7610    5.3002   22.6537 H       1  LIG1        0.0372
     32 H           6.1537    4.5987   22.8151 H       1  LIG1        0.0372
     33 C           5.9990    8.7958   21.1573 C.3     1  LIG1       -0.0269
     34 H           6.9640    8.8727   21.0946 H       1  LIG1        0.0818
     35 H           5.6396    9.6620   21.4064 H       1  LIG1        0.0818
     36 C           5.7340    5.0125   25.3935 C.ar    1  LIG1       -0.0542
     37 H           5.6875    4.1002   25.2181 H       1  LIG1        0.0622
     38 C           5.9039    7.7173   25.9404 C.ar    1  LIG1        0.1699
     39 C           5.8538    6.8018   26.9911 C.ar    1  LIG1        0.1620
     40 C           5.8168    6.4434   29.3633 C.3     1  LIG1        0.0790
     41 H           5.0086    5.9264   29.3159 H       1  LIG1        0.0660
     42 H           5.8262    6.9449   30.1817 H       1  LIG1        0.0660
     43 H           6.5748    5.8541   29.3416 H       1  LIG1        0.0660
     44 C           7.0170    9.6220   26.8737 C.3     1  LIG1        0.0790
     45 H           6.9357    9.3681   27.7971 H       1  LIG1        0.0660
     46 H           7.0112   10.5789   26.8029 H       1  LIG1        0.0660
     47 H           7.8419    9.2804   26.5205 H       1  LIG1        0.0660
     48 C           6.4964    3.3094   16.8724 C.3     1  LIG1        0.2332
     49 H           5.8458    2.6586   16.5675 H       1  LIG1        0.1166
     50 H           7.3234    3.1648   16.3877 H       1  LIG1        0.1166
     51 C           5.6977   10.8866   31.3960 C.3     1  LIG1        0.0330
     52 H           4.9048   10.7389   31.9133 H       1  LIG1        0.0521
     53 H           5.6244   10.4205   30.5596 H       1  LIG1        0.0521
     54 H           5.7994   11.8267   31.2273 H       1  LIG1        0.0521
@<TRIPOS>BOND
     1    50    48    1
     2    49    48    1
     3     8    48    1
     4     8    21    1
     5    48    11    1
     6    20    19    1
     7    21    19   ar
     8    21    27   ar
     9    19    14   ar
    10    11    27    1
    11    27    28   ar
    12    18    16    1
    13    14    16    1
    14    14    13   ar
    15    16    17    1
    16    16    33    1
    17    28    13   ar
    18    28    29    1
    19    13     9    1
    20    34    33    1
    21    33    35    1
    22    33     7    1
    23     9    10    1
    24     9     7    1
    25     9    30    1
    26     1     7    1
    27     7    22    1
    28    31    30    1
    29    32    30    1
    30    30    15    1
    31    24    22    1
    32    22    23    1
    33    22    12    1
    34    15    12   ar
    35    15    36   ar
    36    12    38   ar
    37    37    36    1
    38    36    25   ar
    39    38     6    1
    40    38    39   ar
    41     6    44    1
    42    47    44    1
    43    25    39   ar
    44    25    26    1
    45    46    44    1
    46    44    45    1
    47    39     5    1
    48     5    40    1
    49    41    40    1
    50    43    40    1
    51    40    42    1
    52    53    51    1
    53    54    51    1
    54    51    52    1
    55    51     2    1
    56     2     3    1
