@<TRIPOS>MOLECULE
7059243.cif
 44 48 0 0 0
SMALL
GASTEIGER

@<TRIPOS>ATOM
      1 N          -3.1740    8.8591    5.0180 N.ar    1  LIG1       -0.2185
      2 N          -3.0401    7.6145    2.9808 N.ar    1  LIG1       -0.2144
      3 N          -1.9165    5.5893    2.8781 N.ar    1  LIG1       -0.2238
      4 N          -1.8845    5.4768    5.6751 N.ar    1  LIG1       -0.3086
      5 N          -2.1512    8.1245    6.9986 N.pl3   1  LIG1       -0.3134
      6 C           0.5587    3.0270    3.0203 C.ar    1  LIG1       -0.0525
      7 H           0.9255    3.2367    3.8493 H       1  LIG1        0.0624
      8 C           1.2296    2.1641    2.1675 C.ar    1  LIG1       -0.0611
      9 H           2.0493    1.8056    2.4195 H       1  LIG1        0.0618
     10 C           0.6818    1.8369    0.9457 C.ar    1  LIG1       -0.0617
     11 H           1.1216    1.2397    0.3853 H       1  LIG1        0.0618
     12 C          -0.5138    2.3897    0.5536 C.ar    1  LIG1       -0.0611
     13 H          -0.8723    2.1776   -0.2779 H       1  LIG1        0.0618
     14 C          -1.1832    3.2602    1.3926 C.ar    1  LIG1       -0.0525
     15 H          -1.9897    3.6347    1.1209 H       1  LIG1        0.0624
     16 C          -0.6579    3.5802    2.6433 C.ar    1  LIG1        0.0024
     17 C          -1.3541    4.5763    3.4907 C.ar    1  LIG1        0.0972
     18 C          -1.3924    4.4107    4.9080 C.ar    1  LIG1        0.0728
     19 C          -1.1692    3.3524    5.7690 C.ar    1  LIG1       -0.0344
     20 H          -0.8365    2.5149    5.5384 H       1  LIG1        0.0639
     21 C          -1.5353    3.7723    7.0477 C.ar    1  LIG1       -0.0432
     22 H          -1.4916    3.2565    7.8206 H       1  LIG1        0.0633
     23 C          -1.9709    5.0726    6.9777 C.ar    1  LIG1        0.0107
     24 H          -2.2713    5.5875    7.6914 H       1  LIG1        0.0813
     25 C          -2.2859    6.6585    5.0434 C.ar    1  LIG1        0.1315
     26 C          -2.5410    7.8959    5.6842 C.ar    1  LIG1        0.1507
     27 C          -3.4381    8.6293    3.7199 C.ar    1  LIG1        0.1205
     28 H          -3.9657    9.2644    3.2915 H       1  LIG1        0.1048
     29 C          -2.4284    6.6110    3.6529 C.ar    1  LIG1        0.1823
     30 C          -0.7038    7.9567    7.2482 C.3     1  LIG1        0.0136
     31 H          -0.2224    8.7019    6.8567 H       1  LIG1        0.0464
     32 H          -0.3964    7.1423    6.8195 H       1  LIG1        0.0464
     33 C          -0.4020    7.8883    8.7281 C.3     1  LIG1       -0.0371
     34 H           0.5580    7.8349    8.8599 H       1  LIG1        0.0280
     35 H          -0.8014    7.0873    9.1026 H       1  LIG1        0.0280
     36 C          -0.9454    9.1103    9.4489 C.3     1  LIG1       -0.0502
     37 H          -0.8354    8.9994   10.4064 H       1  LIG1        0.0266
     38 H          -0.4472    9.8968    9.1770 H       1  LIG1        0.0266
     39 C          -2.4145    9.2999    9.1234 C.3     1  LIG1       -0.0371
     40 H          -2.7288   10.1230    9.5293 H       1  LIG1        0.0280
     41 H          -2.9238    8.5667    9.5035 H       1  LIG1        0.0280
     42 C          -2.6586    9.3551    7.6231 C.3     1  LIG1        0.0136
     43 H          -3.6079    9.4442    7.4476 H       1  LIG1        0.0464
     44 H          -2.2067   10.1253    7.2451 H       1  LIG1        0.0464
@<TRIPOS>BOND
     1    13    12    1
     2    11    10    1
     3    12    10   ar
     4    12    14   ar
     5    10     8   ar
     6    15    14    1
     7    14    16   ar
     8     8     9    1
     9     8     6   ar
    10    16     6   ar
    11    16    17    1
    12     3    17   ar
    13     3    29   ar
    14     2    29   ar
    15     2    27   ar
    16     6     7    1
    17    28    27    1
    18    17    18   ar
    19    29    25   ar
    20    27     1   ar
    21    18     4   ar
    22    18    19   ar
    23     1    26   ar
    24    25     4   ar
    25    25    26   ar
    26    20    19    1
    27     4    23   ar
    28    26     5    1
    29    19    21   ar
    30    32    30    1
    31    31    30    1
    32    23    21   ar
    33    23    24    1
    34     5    30    1
    35     5    42    1
    36    21    22    1
    37    44    42    1
    38    30    33    1
    39    43    42    1
    40    42    39    1
    41    33    34    1
    42    33    35    1
    43    33    36    1
    44    39    36    1
    45    39    41    1
    46    39    40    1
    47    38    36    1
    48    36    37    1
