@<TRIPOS>MOLECULE
(2-iodo-5-methoxybiphenyl-3-yl)boronic acid
 30 31 0 0 0
SMALL
GASTEIGER

@<TRIPOS>ATOM
      1 I           0.1224    3.1917    5.5762 I       1  LIG1        0.0000
      2 O           3.4170    2.3579    5.9956 O.3     1  LIG1        0.0000
      3 H           3.1907    3.0859    5.6724 H       1  LIG1        0.0000
      4 O           3.5384    0.0592    5.7594 O.3     1  LIG1        0.0000
      5 H           4.0769    0.1315    6.3951 H       1  LIG1        0.0000
      6 O           1.8937   -0.5413    0.8751 O.3     1  LIG1        0.0000
      7 C          -0.0928    1.6891    2.9412 C.ar    1  LIG1        0.0000
      8 C           0.7539    1.8601    4.0585 C.ar    1  LIG1        0.0000
      9 C           1.9685    1.1777    4.1673 C.ar    1  LIG1        0.0000
     10 C           2.3468    0.3293    3.1138 C.ar    1  LIG1        0.0000
     11 H           3.1464   -0.1791    3.1853 H       1  LIG1        0.0000
     12 C           1.5680    0.2236    1.9674 C.ar    1  LIG1        0.0000
     13 C           0.3586    0.9055    1.8915 C.ar    1  LIG1        0.0000
     14 H          -0.1691    0.8322    1.1045 H       1  LIG1        0.0000
     15 C          -1.4748    2.2355    2.8744 C.ar    1  LIG1        0.0000
     16 C          -2.4571    1.7073    3.6972 C.ar    1  LIG1        0.0000
     17 H          -2.2343    1.0173    4.3116 H       1  LIG1        0.0000
     18 C          -3.7608    2.1743    3.6353 C.ar    1  LIG1        0.0000
     19 H          -4.4304    1.7994    4.1916 H       1  LIG1        0.0000
     20 C          -4.0704    3.1835    2.7571 C.ar    1  LIG1        0.0000
     21 H          -4.9586    3.5189    2.7244 H       1  LIG1        0.0000
     22 C          -3.1167    3.7147    1.9256 C.ar    1  LIG1        0.0000
     23 H          -3.3423    4.4123    1.3227 H       1  LIG1        0.0000
     24 C          -1.8141    3.2265    1.9717 C.ar    1  LIG1        0.0000
     25 H          -1.1557    3.5745    1.3799 H       1  LIG1        0.0000
     26 C           3.0491   -1.3603    0.9793 C.3     1  LIG1        0.0000
     27 H           3.8386   -0.7968    1.1236 H       1  LIG1        0.0000
     28 H           3.1615   -1.8728    0.1527 H       1  LIG1        0.0000
     29 H           2.9456   -1.9775    1.7345 H       1  LIG1        0.0000
     30 B           2.9772    1.2273    5.3749 B       1  LIG1        0.0000
@<TRIPOS>BOND
     1    28    26    1
     2     6    26    1
     3     6    12    1
     4    26    27    1
     5    26    29    1
     6    14    13    1
     7    23    22    1
     8    25    24    1
     9    13    12   ar
    10    13     7   ar
    11    22    24   ar
    12    22    20   ar
    13    12    10   ar
    14    24    15   ar
    15    21    20    1
    16    20    18   ar
    17    15     7    1
    18    15    16   ar
    19     7     8   ar
    20    10    11    1
    21    10     9   ar
    22    18    16   ar
    23    18    19    1
    24    16    17    1
    25     8     9   ar
    26     8     1    1
    27     9    30    1
    28    30     4    1
    29    30     2    1
    30     3     2    1
    31     4     5    1
