@<TRIPOS>MOLECULE
?
 57 57 0 0 0
SMALL
GASTEIGER

@<TRIPOS>ATOM
      1 C           4.4239   15.7306   10.4656 C.ar    1  LIG1        0.0281
      2 H           4.0699   15.9356   11.3224 H       1  LIG1        0.0830
      3 C           4.6535   14.4063   10.1589 C.ar    1  LIG1       -0.0364
      4 H           4.4674   13.7292   10.7987 H       1  LIG1        0.0639
      5 C           5.1638   14.0629    8.8973 C.ar    1  LIG1       -0.0222
      6 C           5.4054   15.1258    8.0214 C.ar    1  LIG1       -0.0364
      7 H           5.7429   14.9555    7.1500 H       1  LIG1        0.0639
      8 C           5.1553   16.4195    8.4178 C.ar    1  LIG1        0.0281
      9 H           5.3344   17.1220    7.8043 H       1  LIG1        0.0830
     10 C           5.3982   12.6568    8.5819 C.2     1  LIG1       -0.0539
     11 H           5.1792   12.0230    9.2554 H       1  LIG1        0.0624
     12 C           5.8937   12.1732    7.4316 C.2     1  LIG1       -0.0540
     13 H           6.1260   12.8073    6.7642 H       1  LIG1        0.0624
     14 C           6.1087   10.7652    7.1122 C.ar    1  LIG1       -0.0248
     15 C           5.8162    9.7217    8.0101 C.ar    1  LIG1       -0.0511
     16 H           5.4779    9.9299    8.8731 H       1  LIG1        0.0625
     17 C           6.0120    8.4117    7.6629 C.ar    1  LIG1       -0.0194
     18 H           5.8089    7.7243    8.2860 H       1  LIG1        0.0654
     19 C           6.5065    8.0751    6.4004 C.ar    1  LIG1        0.1205
     20 C           6.8144    9.0815    5.4946 C.ar    1  LIG1       -0.0194
     21 H           7.1570    8.8672    4.6349 H       1  LIG1        0.0654
     22 C           6.6149   10.4058    5.8636 C.ar    1  LIG1       -0.0511
     23 H           6.8308   11.0926    5.2424 H       1  LIG1        0.0625
     24 C           7.1320    6.2851    4.9118 C.3     1  LIG1        0.0896
     25 H           8.0374    6.6450    4.7355 H       1  LIG1        0.0696
     26 H           6.5275    6.5731    4.1831 H       1  LIG1        0.0696
     27 C           7.1659    4.7764    5.0138 C.3     1  LIG1       -0.0186
     28 H           6.2559    4.4513    5.2304 H       1  LIG1        0.0298
     29 H           7.7618    4.5213    5.7624 H       1  LIG1        0.0298
     30 C           7.6444    4.0835    3.7482 C.3     1  LIG1       -0.0500
     31 H           8.5249    4.4522    3.4857 H       1  LIG1        0.0266
     32 H           7.0063    4.2630    3.0136 H       1  LIG1        0.0266
     33 C           7.7682    2.5760    3.9527 C.3     1  LIG1       -0.0530
     34 H           8.3838    2.4088    4.7104 H       1  LIG1        0.0265
     35 H           6.8801    2.2166    4.2035 H       1  LIG1        0.0265
     36 C           8.2741    1.8144    2.7367 C.3     1  LIG1       -0.0531
     37 H           7.6740    1.9941    1.9699 H       1  LIG1        0.0265
     38 H           9.1762    2.1459    2.4996 H       1  LIG1        0.0265
     39 C           8.3430    0.3188    2.9705 C.3     1  LIG1       -0.0533
     40 H           7.4245   -0.0241    3.1071 H       1  LIG1        0.0265
     41 H           8.8523    0.1511    3.8033 H       1  LIG1        0.0265
     42 C           8.9908   -0.4601    1.8369 C.3     1  LIG1       -0.0559
     43 H           9.8841   -0.0774    1.6500 H       1  LIG1        0.0263
     44 H           8.4404   -0.3622    1.0209 H       1  LIG1        0.0263
     45 C           9.1409   -1.9438    2.1653 C.3     1  LIG1       -0.0653
     46 H           9.6600   -2.0457    2.9909 H       1  LIG1        0.0230
     47 H           9.6052   -2.3963    1.4295 H       1  LIG1        0.0230
     48 H           8.2549   -2.3432    2.2863 H       1  LIG1        0.0230
     49 N           4.6720   16.7416    9.6286 N.ar    1  LIG1       -0.2632
     50 O           6.6456    6.7393    6.1834 O.3     1  LIG1       -0.4920
     51 C           3.2716    9.0766   11.7202 C.3     2  LIG2        0.3646
     52 C           1.7323    9.2549   11.6609 C.3     2  LIG2        0.3876
     53 F           3.8519   10.1302   11.1091 F       2  LIG2       -0.1872
     54 F           3.6587    9.0903   13.0112 F       2  LIG2       -0.1872
     55 F           1.3702    9.2275   10.3662 F       2  LIG2       -0.1913
     56 F           1.1770    8.1985   12.2841 F       2  LIG2       -0.1913
     57 I           3.9016    7.2392   10.7790 I       2  LIG2        0.0047
@<TRIPOS>BOND
     1    44    42    1
     2    47    45    1
     3    43    42    1
     4    42    45    1
     5    42    39    1
     6    37    36    1
     7    45    48    1
     8    45    46    1
     9    38    36    1
    10    36    39    1
    11    36    33    1
    12    39    40    1
    13    39    41    1
    14    32    30    1
    15    31    30    1
    16    30    33    1
    17    30    27    1
    18    33    35    1
    19    33    34    1
    20    26    24    1
    21    21    20    1
    22    25    24    1
    23    24    27    1
    24    24    50    1
    25    27    28    1
    26    27    29    1
    27    23    22    1
    28    20    22   ar
    29    20    19   ar
    30    22    14   ar
    31    50    19    1
    32    19    17   ar
    33    13    12    1
    34    14    12    1
    35    14    15   ar
    36     7     6    1
    37    12    10    2
    38    17    15   ar
    39    17    18    1
    40     9     8    1
    41    15    16    1
    42     6     8   ar
    43     6     5   ar
    44     8    49   ar
    45    10     5    1
    46    10    11    1
    47     5     3   ar
    48    49     1   ar
    49     3     1   ar
    50     3     4    1
    51    55    52    1
    52     1     2    1
    53    57    51    1
    54    53    51    1
    55    52    51    1
    56    52    56    1
    57    51    54    1
