@<TRIPOS>MOLECULE
?
 59 59 0 0 0
SMALL
GASTEIGER

@<TRIPOS>ATOM
      1 O           5.3358    8.2114   28.2808 O.co2   1  LIG1       -0.2460
      2 O           5.5508   10.3189   27.6717 O.co2   1  LIG1       -0.2460
      3 O           2.8489    6.3697   27.2851 O.3     2  LIG2       -0.3815
      4 H           2.4455    6.5114   28.0554 H       2  LIG2        0.2105
      5 O           4.4197    2.5666   27.8534 O.3     2  LIG2       -0.3894
      6 H           4.7655    1.7675   27.8065 H       2  LIG2        0.2097
      7 N           5.3558    5.5173   27.8803 N.4     2  LIG2        0.2368
      8 H           5.0314    6.3997   27.8355 H       2  LIG2        0.2032
      9 C           4.8925    8.7157   26.0401 C.3     1  LIG1        0.0731
     10 H           4.2416    7.9843   26.0010 H       1  LIG1        0.0426
     11 C           5.9225    8.6944   24.9399 C.3     1  LIG1       -0.0143
     12 C           4.7980    9.6970   24.9012 C.3     1  LIG1       -0.0032
     13 H           5.0566   10.6153   25.1243 H       1  LIG1        0.0357
     14 C           3.7119    9.5822   23.9203 C.2     1  LIG1       -0.0809
     15 H           3.1910    8.8143   23.9784 H       1  LIG1        0.0575
     16 C           3.3816   10.4304   22.9677 C.2     1  LIG1       -0.0793
     17 C           5.2760    9.1322   27.4243 C.2     1  LIG1        0.3601
     18 C           4.0939   11.7317   22.7646 C.3     1  LIG1       -0.0440
     19 H           4.9317   11.7144   23.2319 H       1  LIG1        0.0274
     20 H           3.5530   12.4489   23.1017 H       1  LIG1        0.0274
     21 H           4.2534   11.8658   21.8286 H       1  LIG1        0.0274
     22 C           2.2460   10.1653   22.0268 C.3     1  LIG1       -0.0440
     23 H           1.5870   10.8571   22.1150 H       1  LIG1        0.0274
     24 H           1.8493    9.3161   22.2365 H       1  LIG1        0.0274
     25 H           2.5748   10.1511   21.1254 H       1  LIG1        0.0274
     26 C           5.8855    7.5404   23.9512 C.3     1  LIG1       -0.0585
     27 H           4.9841    7.2204   23.8656 H       1  LIG1        0.0235
     28 H           6.4492    6.8304   24.2678 H       1  LIG1        0.0235
     29 H           6.1995    7.8421   23.0959 H       1  LIG1        0.0235
     30 C           7.3218    9.1718   25.2441 C.3     1  LIG1       -0.0585
     31 H           7.8139    8.4679   25.6740 H       1  LIG1        0.0235
     32 H           7.2812    9.9347   25.8245 H       1  LIG1        0.0235
     33 H           7.7614    9.4156   24.4269 H       1  LIG1        0.0235
     34 C           4.5497    4.7573   26.8595 C.3     2  LIG2        0.0329
     35 H           4.7544    5.1563   25.9894 H       2  LIG2        0.0903
     36 C           3.0469    4.9734   27.0973 C.3     2  LIG2        0.1247
     37 H           2.7677    4.4899   27.9020 H       2  LIG2        0.0701
     38 C           2.2564    4.4773   25.9046 C.ar    2  LIG2       -0.0137
     39 C           2.0702    5.2721   24.7961 C.ar    2  LIG2       -0.0559
     40 H           2.4433    6.1234   24.7770 H       2  LIG2        0.0621
     41 C           1.3395    4.8251   23.7137 C.ar    2  LIG2       -0.0614
     42 H           1.2331    5.3727   22.9686 H       2  LIG2        0.0618
     43 C           0.7699    3.5797   23.7310 C.ar    2  LIG2       -0.0617
     44 H           0.2785    3.2770   23.0033 H       2  LIG2        0.0618
     45 C           0.9294    2.8047   24.8106 C.ar    2  LIG2       -0.0614
     46 H           0.5312    1.9636   24.8262 H       2  LIG2        0.0618
     47 C           1.6749    3.2222   25.9104 C.ar    2  LIG2       -0.0559
     48 H           1.7813    2.6614   26.6433 H       2  LIG2        0.0621
     49 C           4.9310    3.2812   26.7626 C.3     2  LIG2        0.0896
     50 H           4.5800    2.9093   25.9373 H       2  LIG2        0.0615
     51 H           5.8966    3.1968   26.7446 H       2  LIG2        0.0615
     52 C           6.7921    5.5992   27.5108 C.3     2  LIG2       -0.0429
     53 H           7.2095    4.7479   27.6590 H       2  LIG2        0.0778
     54 H           7.2235    6.2656   28.0496 H       2  LIG2        0.0778
     55 H           6.8711    5.8359   26.5855 H       2  LIG2        0.0778
     56 C           5.2073    5.0842   29.2973 C.3     2  LIG2       -0.0429
     57 H           5.6580    5.7079   29.8725 H       2  LIG2        0.0778
     58 H           5.5922    4.2116   29.4066 H       2  LIG2        0.0778
     59 H           4.2756    5.0537   29.5282 H       2  LIG2        0.0778
@<TRIPOS>BOND
     1    25    22    1
     2    21    18    1
     3    22    23    1
     4    22    24    1
     5    22    16    1
     6    18    16    1
     7    18    20    1
     8    18    19    1
     9    16    14    2
    10    42    41    1
    11    44    43    1
    12    29    26    1
    13    41    43   ar
    14    41    39   ar
    15    43    45   ar
    16    27    26    1
    17    14    15    1
    18    14    12    1
    19    26    28    1
    20    26    11    1
    21    33    30    1
    22    40    39    1
    23    39    38   ar
    24    45    46    1
    25    45    47   ar
    26    12    11    1
    27    12    13    1
    28    12     9    1
    29    11    30    1
    30    11     9    1
    31    30    31    1
    32    30    32    1
    33    38    47   ar
    34    38    36    1
    35    47    48    1
    36    50    49    1
    37    35    34    1
    38    10     9    1
    39     9    17    1
    40    55    52    1
    41    51    49    1
    42    49    34    1
    43    49     5    1
    44    34    36    1
    45    34     7    1
    46    36     3    1
    47    36    37    1
    48     3     4    1
    49    17     2   ar
    50    17     1   ar
    51    52    53    1
    52    52     7    1
    53    52    54    1
    54     6     5    1
    55     8     7    1
    56     7    56    1
    57    56    58    1
    58    56    59    1
    59    56    57    1
