@<TRIPOS>MOLECULE
tert-butyl 2-[biphenyl-2-yl(phenyl)phosphorothioyl]benzoate
 60 63 0 0 0
SMALL
GASTEIGER

@<TRIPOS>ATOM
      1 P           2.0239    6.6064    3.4309 P.3     1  LIG1        0.1880
      2 S           3.4569    5.2698    3.5540 S.3     1  LIG1        0.1469
      3 O          -0.2769    8.6141    3.4509 O.2     1  LIG1       -0.2448
      4 O          -2.0697    7.9552    2.2437 O.3     1  LIG1       -0.4553
      5 C           2.7453    8.2340    3.8103 C.ar    1  LIG1        0.1184
      6 C           3.5315    8.3842    4.9545 C.ar    1  LIG1       -0.0178
      7 C           4.1622    9.5999    5.2244 C.ar    1  LIG1       -0.0580
      8 C           4.0614   10.6465    4.3173 C.ar    1  LIG1       -0.0615
      9 C           3.3209   10.4903    3.1583 C.ar    1  LIG1       -0.0580
     10 C           2.6540    9.2947    2.9053 C.ar    1  LIG1       -0.0178
     11 C           0.6915    6.1964    4.6212 C.ar    1  LIG1        0.1260
     12 C           0.7015    6.8644    5.8545 C.ar    1  LIG1       -0.0172
     13 C          -0.1950    6.5436    6.8639 C.ar    1  LIG1       -0.0580
     14 C          -1.1256    5.5421    6.6509 C.ar    1  LIG1       -0.0609
     15 C          -1.1789    4.8970    5.4236 C.ar    1  LIG1       -0.0502
     16 C          -0.2874    5.2022    4.3891 C.ar    1  LIG1        0.0259
     17 C          -0.5076    4.5129    3.0780 C.ar    1  LIG1       -0.0141
     18 C          -1.7412    4.6784    2.4358 C.ar    1  LIG1       -0.0539
     19 C          -1.9747    4.1103    1.1933 C.ar    1  LIG1       -0.0612
     20 C          -1.0028    3.3412    0.5901 C.ar    1  LIG1       -0.0617
     21 C           0.2002    3.1186    1.2365 C.ar    1  LIG1       -0.0612
     22 C           0.4507    3.7053    2.4779 C.ar    1  LIG1       -0.0539
     23 C           1.2918    6.7655    1.7562 C.ar    1  LIG1        0.1323
     24 C           0.0498    7.3563    1.4541 C.ar    1  LIG1        0.1026
     25 C          -0.4215    7.3508    0.1401 C.ar    1  LIG1       -0.0439
     26 C           0.3464    6.7997   -0.8848 C.ar    1  LIG1       -0.0607
     27 C           1.5667    6.2245   -0.5930 C.ar    1  LIG1       -0.0580
     28 C           2.0279    6.1932    0.7171 C.ar    1  LIG1       -0.0170
     29 C          -0.7652    8.0438    2.5066 C.2     1  LIG1        0.3435
     30 C          -3.0708    8.6195    3.1215 C.3     1  LIG1        0.1055
     31 C          -2.8271   10.1188    3.1537 C.3     1  LIG1       -0.0254
     32 C          -4.3689    8.2993    2.3976 C.3     1  LIG1       -0.0254
     33 C          -3.0445    7.9914    4.5048 C.3     1  LIG1       -0.0254
     34 H           3.6593    7.6393    5.5545 H       1  LIG1        0.0657
     35 H           4.6692    9.6403    6.0250 H       1  LIG1        0.0619
     36 H           4.4499   11.4518    4.4861 H       1  LIG1        0.0618
     37 H           3.2444   11.1990    2.5225 H       1  LIG1        0.0619
     38 H           2.1520    9.1706    2.1263 H       1  LIG1        0.0657
     39 H           1.3231    7.5815    6.0003 H       1  LIG1        0.0657
     40 H          -0.1826    7.0474    7.7126 H       1  LIG1        0.0619
     41 H          -1.7753    5.3116    7.3270 H       1  LIG1        0.0618
     42 H          -1.8294    4.2406    5.2856 H       1  LIG1        0.0625
     43 H          -2.3674    5.2368    2.8905 H       1  LIG1        0.0624
     44 H          -2.7807    4.2425    0.7606 H       1  LIG1        0.0618
     45 H          -1.1700    2.9735   -0.2477 H       1  LIG1        0.0618
     46 H           0.8748    2.5379    0.7819 H       1  LIG1        0.0618
     47 H           1.2575    3.5796    2.9188 H       1  LIG1        0.0624
     48 H          -1.2138    7.7312   -0.0142 H       1  LIG1        0.0627
     49 H           0.0350    6.8088   -1.7371 H       1  LIG1        0.0618
     50 H           2.0689    5.8107   -1.2913 H       1  LIG1        0.0619
     51 H           2.8594    5.7861    0.9163 H       1  LIG1        0.0657
     52 H          -2.0388   10.3458    3.7360 H       1  LIG1        0.0268
     53 H          -2.6298   10.4641    2.2784 H       1  LIG1        0.0268
     54 H          -3.6194   10.5683    3.5379 H       1  LIG1        0.0268
     55 H          -4.5270    7.3107    2.3704 H       1  LIG1        0.0268
     56 H          -4.3575    8.6649    1.4576 H       1  LIG1        0.0268
     57 H          -5.1175    8.6554    2.9117 H       1  LIG1        0.0268
     58 H          -2.2252    8.1914    4.9672 H       1  LIG1        0.0268
     59 H          -3.1110    7.0171    4.4224 H       1  LIG1        0.0268
     60 H          -3.8512    8.3751    5.0167 H       1  LIG1        0.0268
@<TRIPOS>BOND
     1    49    26    1
     2    50    27    1
     3    26    27   ar
     4    26    25   ar
     5    27    28   ar
     6    45    20    1
     7    48    25    1
     8    25    24   ar
     9    20    19   ar
    10    20    21   ar
    11    28    51    1
    12    28    23   ar
    13    44    19    1
    14    46    21    1
    15    19    18   ar
    16    21    22   ar
    17    24    23   ar
    18    24    29    1
    19    56    32    1
    20    23     1    1
    21    38    10    1
    22     4    29    1
    23     4    30    1
    24    53    31    1
    25    55    32    1
    26    32    57    1
    27    32    30    1
    28    18    43    1
    29    18    17   ar
    30    22    47    1
    31    22    17   ar
    32    29     3    2
    33    37     9    1
    34    10     9   ar
    35    10     5   ar
    36    17    16    1
    37    30    31    1
    38    30    33    1
    39    31    54    1
    40    31    52    1
    41     9     8   ar
    42     1     2    1
    43     1     5    1
    44     1    11    1
    45     5     6   ar
    46     8    36    1
    47     8     7   ar
    48    16    11   ar
    49    16    15   ar
    50    59    33    1
    51    33    58    1
    52    33    60    1
    53    11    12   ar
    54     6     7   ar
    55     6    34    1
    56     7    35    1
    57    42    15    1
    58    15    14   ar
    59    12    39    1
    60    12    13   ar
    61    14    13   ar
    62    14    41    1
    63    13    40    1
