@<TRIPOS>MOLECULE
3-tert-Butyl-4-hydroxyanisole
 29 29 0 0 0
SMALL
GASTEIGER

@<TRIPOS>ATOM
      1 O          -6.2195   14.9427   -0.0530 O.3     1  LIG1       -0.4951
      2 O          -4.6565   11.6068    4.0670 O.3     1  LIG1       -0.5065
      3 H          -4.5999   10.7870    3.7638 H       1  LIG1        0.2921
      4 C          -5.8571   14.0256    0.9209 C.ar    1  LIG1        0.1206
      5 C          -6.3016   12.7178    0.9676 C.ar    1  LIG1       -0.0165
      6 H          -6.8720   12.3691    0.2931 H       1  LIG1        0.0655
      7 C          -5.8846   11.9266    2.0362 C.ar    1  LIG1       -0.0164
      8 H          -6.1902   11.0286    2.0927 H       1  LIG1        0.0655
      9 C          -5.0399   12.4100    3.0164 C.ar    1  LIG1        0.1207
     10 C          -4.5777   13.7438    2.9784 C.ar    1  LIG1        0.0029
     11 C          -5.0150   14.5193    1.9118 C.ar    1  LIG1       -0.0128
     12 H          -4.7261   15.4219    1.8573 H       1  LIG1        0.0658
     13 C          -7.0465   14.4699   -1.1105 C.3     1  LIG1        0.0788
     14 H          -7.8497   14.1214   -0.7583 H       1  LIG1        0.0660
     15 H          -7.2213   15.1299   -1.6898 H       1  LIG1        0.0660
     16 H          -6.6840   13.6948   -1.5595 H       1  LIG1        0.0660
     17 C          -3.6374   14.3136    4.0476 C.3     1  LIG1       -0.0091
     18 C          -4.3193   14.2258    5.4251 C.3     1  LIG1       -0.0559
     19 H          -3.7556   14.6235    6.0379 H       1  LIG1        0.0238
     20 H          -4.4713   13.3461    5.6611 H       1  LIG1        0.0238
     21 H          -5.1106   14.7601    5.4043 H       1  LIG1        0.0238
     22 C          -2.3137   13.5261    4.0444 C.3     1  LIG1       -0.0559
     23 H          -1.7407   13.8650    4.7557 H       1  LIG1        0.0238
     24 H          -2.4637   12.5624    4.2021 H       1  LIG1        0.0238
     25 H          -1.8523   13.6381    3.1451 H       1  LIG1        0.0238
     26 C          -3.3112   15.7846    3.7872 C.3     1  LIG1       -0.0559
     27 H          -2.7694   16.0586    4.4710 H       1  LIG1        0.0238
     28 H          -4.1329   16.3863    3.8076 H       1  LIG1        0.0238
     29 H          -2.8701   15.8800    2.9683 H       1  LIG1        0.0238
@<TRIPOS>BOND
     1    15    13    1
     2    16    13    1
     3    13    14    1
     4    13     1    1
     5     1     4    1
     6     6     5    1
     7     4     5   ar
     8     4    11   ar
     9     5     7   ar
    10    12    11    1
    11    11    10   ar
    12     7     8    1
    13     7     9   ar
    14    29    26    1
    15    10     9   ar
    16    10    17    1
    17     9     2    1
    18    25    22    1
    19     3     2    1
    20    26    28    1
    21    26    17    1
    22    26    27    1
    23    22    17    1
    24    22    24    1
    25    22    23    1
    26    17    18    1
    27    21    18    1
    28    18    20    1
    29    18    19    1
