@<TRIPOS>MOLECULE
?
 30 27 0 0 0
SMALL
GASTEIGER

@<TRIPOS>ATOM
      1 I           3.3600    0.5227    1.5987 I       1  LIG1        0.1550
      2 O           3.9817    1.8485    3.8643 O.2     1  LIG1       -0.2449
      3 O           2.8503    2.9690    5.4323 O.3     1  LIG1       -0.4644
      4 O           2.5256   -0.0007    0.0848 O.3     2  HOH2        0.0000
      5 O           3.6396   -1.0317    2.4495 O.3     1  LIG1       -0.1550
      6 C           1.5714    1.0539    2.6272 C.ar    1  LIG1       -0.0031
      7 C           1.6130    1.7551    3.8369 C.ar    1  LIG1        0.0667
      8 C           0.4170    1.9963    4.5149 C.ar    1  LIG1       -0.0472
      9 H           0.4247    2.4715    5.3369 H       1  LIG1        0.0626
     10 C          -0.7798    1.5419    3.9897 C.ar    1  LIG1       -0.0609
     11 H          -1.5906    1.6995    4.4590 H       1  LIG1        0.0618
     12 C          -0.8048    0.8593    2.7836 C.ar    1  LIG1       -0.0611
     13 H          -1.6316    0.5550    2.4299 H       1  LIG1        0.0618
     14 C           0.3787    0.6175    2.0860 C.ar    1  LIG1       -0.0532
     15 H           0.3639    0.1616    1.2532 H       1  LIG1        0.0624
     16 C           2.9290    2.1822    4.3640 C.2     1  LIG1        0.3395
     17 C           4.1199    3.4030    5.9846 C.3     1  LIG1        0.0820
     18 H           3.9605    4.0647    6.6900 H       1  LIG1        0.0661
     19 H           4.6637    3.8062    5.2762 H       1  LIG1        0.0661
     20 H           4.5935    2.6320    6.3608 H       1  LIG1        0.0661
     21 S           4.0876    3.8870    0.4606 S.3     3  LIG3       -0.0495
     22 O           2.8902    3.1861    1.0680 O.3     3  LIG3       -0.1626
     23 C           3.7540    4.0401   -1.2757 C.3     3  LIG3       -0.0004
     24 H           3.7890    3.1546   -1.6941 H       3  LIG3        0.0355
     25 H           4.4260    4.6230   -1.6872 H       3  LIG3        0.0355
     26 H           2.8626    4.4273   -1.4040 H       3  LIG3        0.0355
     27 C           3.9074    5.6068    0.9004 C.3     3  LIG3       -0.0004
     28 H           4.0152    5.7094    1.8694 H       3  LIG3        0.0355
     29 H           3.0179    5.9203    0.6359 H       3  LIG3        0.0355
     30 H           4.5911    6.1354    0.4380 H       3  LIG3        0.0355
@<TRIPOS>BOND
     1    24    23    1
     2    25    23    1
     3    26    23    1
     4    23    21    1
     5    30    27    1
     6    21    27    1
     7    21    22    1
     8    29    27    1
     9    27    28    1
    10    15    14    1
    11     1     5    1
    12    14     6   ar
    13    14    12   ar
    14    13    12    1
    15     6     7   ar
    16    12    10   ar
    17     7    16    1
    18     7     8   ar
    19     2    16    2
    20    10    11    1
    21    10     8   ar
    22    16     3    1
    23     8     9    1
    24    19    17    1
    25     3    17    1
    26    17    20    1
    27    17    18    1
