@<TRIPOS>MOLECULE
L1H2, H2(O2NO)BuMe
 76 78 0 0 0
SMALL
GASTEIGER

@<TRIPOS>ATOM
      1 O           8.5069    3.8475    3.2098 O.3     1  LIG1       -0.5062
      2 H           7.7226    4.3296    2.9564 H       1  LIG1        0.2922
      3 O           7.0579    2.9501    0.3593 O.3     1  LIG1       -0.5062
      4 H           6.8467    3.1577    1.2297 H       1  LIG1        0.2922
      5 O           6.7923    5.7809    2.1747 O.3     1  LIG1       -0.3753
      6 N           5.5562    3.3923    2.5932 N.3     1  LIG1       -0.2913
      7 C           4.9939    2.0923    2.1733 C.3     1  LIG1        0.0279
      8 H           4.0879    1.9953    2.5606 H       1  LIG1        0.0477
      9 H           5.5575    1.3664    2.5401 H       1  LIG1        0.0477
     10 C           4.9039    1.9301    0.6657 C.ar    1  LIG1        0.0086
     11 C           3.7922    1.2982    0.1185 C.ar    1  LIG1       -0.0509
     12 H           3.0812    1.0308    0.6882 H       1  LIG1        0.0624
     13 C           3.7025    1.0503   -1.2483 C.ar    1  LIG1       -0.0496
     14 C           4.7600    1.4531   -2.0565 C.ar    1  LIG1       -0.0517
     15 H           4.7058    1.2805   -2.9894 H       1  LIG1        0.0624
     16 C           5.9014    2.1014   -1.5660 C.ar    1  LIG1       -0.0000
     17 C           5.9520    2.3313   -0.1728 C.ar    1  LIG1        0.1249
     18 C           2.4862    0.3621   -1.8238 C.3     1  LIG1       -0.0397
     19 H           1.6857    0.6592   -1.3434 H       1  LIG1        0.0278
     20 H           2.5844   -0.6087   -1.7279 H       1  LIG1        0.0278
     21 H           2.4001    0.5901   -2.7733 H       1  LIG1        0.0278
     22 C           7.0610    2.5159   -2.4874 C.3     1  LIG1       -0.0092
     23 C           6.7969    2.1412   -3.9561 C.3     1  LIG1       -0.0559
     24 H           6.0624    2.6856   -4.3056 H       1  LIG1        0.0238
     25 H           6.5570    1.1926   -4.0132 H       1  LIG1        0.0238
     26 H           7.6056    2.3047   -4.4853 H       1  LIG1        0.0238
     27 C           7.2583    4.0442   -2.4411 C.3     1  LIG1       -0.0559
     28 H           6.3962    4.4891   -2.5811 H       1  LIG1        0.0238
     29 H           7.8834    4.3135   -3.1464 H       1  LIG1        0.0238
     30 H           7.6202    4.3001   -1.5675 H       1  LIG1        0.0238
     31 C           8.3539    1.8057   -2.0490 C.3     1  LIG1       -0.0559
     32 H           8.4618    1.8939   -1.0795 H       1  LIG1        0.0238
     33 H           9.1212    2.2160   -2.5014 H       1  LIG1        0.0238
     34 H           8.3023    0.8568   -2.2876 H       1  LIG1        0.0238
     35 C           4.7192    4.5113    2.1547 C.3     1  LIG1        0.0259
     36 H           3.8557    4.4769    2.6391 H       1  LIG1        0.0452
     37 H           4.5285    4.4110    1.1887 H       1  LIG1        0.0452
     38 C           5.3680    5.8711    2.3938 C.3     1  LIG1        0.0714
     39 H           5.1862    6.1757    3.3284 H       1  LIG1        0.0609
     40 C           4.8880    6.9297    1.3976 C.3     1  LIG1       -0.0233
     41 H           3.9576    6.7556    1.1091 H       1  LIG1        0.0291
     42 H           4.9428    7.8387    1.7859 H       1  LIG1        0.0291
     43 C           5.8542    6.7673    0.2503 C.3     1  LIG1       -0.0271
     44 H           5.9198    7.5970   -0.2867 H       1  LIG1        0.0288
     45 H           5.5906    6.0171   -0.3390 H       1  LIG1        0.0288
     46 C           7.1600    6.4717    0.9737 C.3     1  LIG1        0.0482
     47 H           7.7477    5.9055    0.4129 H       1  LIG1        0.0560
     48 H           7.6381    7.3116    1.1876 H       1  LIG1        0.0560
     49 C           5.7892    3.4119    4.0525 C.3     1  LIG1        0.0279
     50 H           4.9634    3.1234    4.5149 H       1  LIG1        0.0477
     51 H           5.9858    4.3397    4.3363 H       1  LIG1        0.0477
     52 C           6.9255    2.5182    4.4722 C.ar    1  LIG1        0.0086
     53 C           8.2359    2.7917    4.0367 C.ar    1  LIG1        0.1249
     54 C           9.3145    1.9791    4.4484 C.ar    1  LIG1       -0.0000
     55 C           9.0191    0.9020    5.2921 C.ar    1  LIG1       -0.0517
     56 H           9.7339    0.3449    5.5785 H       1  LIG1        0.0624
     57 C           7.7319    0.6022    5.7348 C.ar    1  LIG1       -0.0496
     58 C           6.6983    1.4309    5.3133 C.ar    1  LIG1       -0.0509
     59 H           5.8129    1.2516    5.6069 H       1  LIG1        0.0624
     60 C          10.7494    2.2463    3.9582 C.3     1  LIG1       -0.0092
     61 C          11.1877    3.6908    4.2692 C.3     1  LIG1       -0.0559
     62 H          10.4350    4.2994    4.1201 H       1  LIG1        0.0238
     63 H          11.9313    3.9407    3.6811 H       1  LIG1        0.0238
     64 H          11.4762    3.7510    5.2042 H       1  LIG1        0.0238
     65 C          11.7667    1.3143    4.6412 C.3     1  LIG1       -0.0559
     66 H          11.6353    1.3432    5.6115 H       1  LIG1        0.0238
     67 H          12.6760    1.6095    4.4261 H       1  LIG1        0.0238
     68 H          11.6362    0.3972    4.3204 H       1  LIG1        0.0238
     69 C          10.8227    1.9933    2.4419 C.3     1  LIG1       -0.0559
     70 H          10.3369    2.7006    1.9691 H       1  LIG1        0.0238
     71 H          10.4163    1.1247    2.2364 H       1  LIG1        0.0238
     72 H          11.7596    1.9923    2.1556 H       1  LIG1        0.0238
     73 C           7.4672   -0.5680    6.6564 C.3     1  LIG1       -0.0397
     74 H           7.3417   -0.2413    7.5714 H       1  LIG1        0.0278
     75 H           8.2299   -1.1829    6.6307 H       1  LIG1        0.0278
     76 H           6.6584   -1.0378    6.3634 H       1  LIG1        0.0278
@<TRIPOS>BOND
     1    26    23    1
     2    24    23    1
     3    25    23    1
     4    23    22    1
     5    29    27    1
     6    15    14    1
     7    21    18    1
     8    28    27    1
     9    33    31    1
    10    22    27    1
    11    22    31    1
    12    22    16    1
    13    27    30    1
    14    34    31    1
    15    14    16   ar
    16    14    13   ar
    17    31    32    1
    18    18    20    1
    19    18    19    1
    20    18    13    1
    21    16    17   ar
    22    13    11   ar
    23    45    43    1
    24    44    43    1
    25    17     3    1
    26    17    10   ar
    27    11    10   ar
    28    11    12    1
    29    43    46    1
    30    43    40    1
    31     3     4    1
    32    47    46    1
    33    10     7    1
    34    46    48    1
    35    46     5    1
    36    41    40    1
    37    37    35    1
    38    40    42    1
    39    40    38    1
    40    70    69    1
    41    35    38    1
    42    35     6    1
    43    35    36    1
    44    72    69    1
    45     7     9    1
    46     7     8    1
    47     7     6    1
    48     5    38    1
    49    71    69    1
    50    38    39    1
    51    69    60    1
    52     6    49    1
    53     2     1    1
    54     1    53    1
    55    63    61    1
    56    60    61    1
    57    60    54    1
    58    60    65    1
    59    53    54   ar
    60    53    52   ar
    61    49    51    1
    62    49    52    1
    63    49    50    1
    64    62    61    1
    65    61    64    1
    66    68    65    1
    67    67    65    1
    68    54    55   ar
    69    52    58   ar
    70    65    66    1
    71    55    56    1
    72    55    57   ar
    73    58    59    1
    74    58    57   ar
    75    57    73    1
    76    76    73    1
    77    75    73    1
    78    73    74    1
