@<TRIPOS>MOLECULE
C19 H18 N +, I -, 0.5(C H Cl3)
 83 84 0 0 0
SMALL
GASTEIGER

@<TRIPOS>ATOM
      1 I          10.5121    9.8741    5.4020 I       1  LIG1        0.0000
      2 I           5.9808    8.6970    3.4287 I       2  LIG2        0.0000
      3 N           7.1518    9.8619    6.5552 N.4     3  LIG3        0.2330
      4 H           8.0464    9.9977    6.4525 H       3  LIG3        0.2010
      5 H           6.7559    9.8151    5.7378 H       3  LIG3        0.2010
      6 H           7.0133    9.0825    7.0045 H       3  LIG3        0.2010
      7 C           6.5496   11.0184    7.3472 C.3     3  LIG3        0.0638
      8 C           6.8406   12.2796    6.5165 C.ar    3  LIG3        0.0124
      9 C           6.4775   12.3463    5.1817 C.ar    3  LIG3       -0.0523
     10 H           6.1028   11.5798    4.7644 H       3  LIG3        0.0623
     11 C           6.6485   13.5112    4.4403 C.ar    3  LIG3       -0.0613
     12 H           6.3644   13.5452    3.5336 H       3  LIG3        0.0618
     13 C           7.2263   14.6066    5.0217 C.ar    3  LIG3       -0.0617
     14 H           7.3475   15.4084    4.5257 H       3  LIG3        0.0618
     15 C           7.6289   14.5302    6.3312 C.ar    3  LIG3       -0.0613
     16 H           8.0663   15.2790    6.7205 H       3  LIG3        0.0618
     17 C           7.4243   13.4271    7.0899 C.ar    3  LIG3       -0.0523
     18 H           7.6739   13.4277    8.0073 H       3  LIG3        0.0623
     19 C           7.2390   11.0767    8.7100 C.ar    3  LIG3        0.0124
     20 C           6.5620   11.6738    9.7727 C.ar    3  LIG3       -0.0523
     21 H           5.6652   11.9620    9.6554 H       3  LIG3        0.0623
     22 C           7.1923   11.8508   11.0102 C.ar    3  LIG3       -0.0613
     23 H           6.7277   12.2635   11.7289 H       3  LIG3        0.0618
     24 C           8.4881   11.4265   11.1795 C.ar    3  LIG3       -0.0617
     25 H           8.9222   11.5273   12.0196 H       3  LIG3        0.0618
     26 C           9.1757   10.8293   10.0741 C.ar    3  LIG3       -0.0613
     27 H          10.0823   10.5631   10.1714 H       3  LIG3        0.0618
     28 C           8.5563   10.6453    8.9113 C.ar    3  LIG3       -0.0523
     29 H           9.0166   10.2107    8.2020 H       3  LIG3        0.0623
     30 C           4.6367    9.4736    8.0033 C.ar    3  LIG3       -0.0523
     31 H           5.2798    8.8296    8.2740 H       3  LIG3        0.0623
     32 C           5.0376   10.7011    7.4806 C.ar    3  LIG3        0.0124
     33 C           3.2824    9.2100    8.1193 C.ar    3  LIG3       -0.0613
     34 H           2.9961    8.3582    8.4273 H       3  LIG3        0.0618
     35 C           2.3453   10.1684    7.7953 C.ar    3  LIG3       -0.0617
     36 H           1.4216    9.9700    7.8926 H       3  LIG3        0.0618
     37 C           2.7256   11.3948    7.3366 C.ar    3  LIG3       -0.0613
     38 H           2.0725   12.0510    7.1272 H       3  LIG3        0.0618
     39 C           4.0946   11.6789    7.1752 C.ar    3  LIG3       -0.0523
     40 H           4.3727   12.5308    6.8605 H       3  LIG3        0.0623
     41 N           9.2322    8.7365    2.2922 N.4     4  LIG4        0.2330
     42 H           9.5638    9.2641    2.9562 H       4  LIG4        0.2010
     43 H           9.4911    7.8759    2.4322 H       4  LIG4        0.2010
     44 H           8.3241    8.7837    2.2908 H       4  LIG4        0.2010
     45 C           9.7726    9.2189    0.9401 C.3     4  LIG4        0.0638
     46 C          11.2799    9.0851    1.0134 C.ar    4  LIG4        0.0124
     47 C          11.8619    7.9622    1.5428 C.ar    4  LIG4       -0.0523
     48 H          11.3230    7.2522    1.8721 H       4  LIG4        0.0623
     49 C          13.2656    7.8731    1.5895 C.ar    4  LIG4       -0.0613
     50 H          13.6483    7.1193    2.0228 H       4  LIG4        0.0618
     51 C          14.0755    8.7573    1.0801 C.ar    4  LIG4       -0.0617
     52 H          15.0166    8.6241    1.0841 H       4  LIG4        0.0618
     53 C          13.5186    9.8865    0.5374 C.ar    4  LIG4       -0.0613
     54 H          14.0798   10.5632    0.1760 H       4  LIG4        0.0618
     55 C          12.1386   10.0471    0.5120 C.ar    4  LIG4       -0.0523
     56 H          11.7739   10.8405    0.1400 H       4  LIG4        0.0623
     57 C           9.1846    8.3129   -0.1347 C.ar    4  LIG4        0.0124
     58 C           9.9133    8.0892   -1.3054 C.ar    4  LIG4       -0.0523
     59 H          10.7876    8.4485   -1.3988 H       4  LIG4        0.0623
     60 C           9.3543    7.3404   -2.3268 C.ar    4  LIG4       -0.0613
     61 H           9.8598    7.1941   -3.1176 H       4  LIG4        0.0618
     62 C           8.0938    6.8024   -2.2335 C.ar    4  LIG4       -0.0617
     63 H           7.7341    6.2690   -2.9322 H       4  LIG4        0.0618
     64 C           7.3547    7.0705   -1.0654 C.ar    4  LIG4       -0.0613
     65 H           6.4632    6.7494   -0.9894 H       4  LIG4        0.0618
     66 C           7.9027    7.7868   -0.0413 C.ar    4  LIG4       -0.0523
     67 H           7.3991    7.9291    0.7521 H       4  LIG4        0.0623
     68 C           9.3010   10.6680    0.7761 C.ar    4  LIG4        0.0124
     69 C           9.3789   11.5535    1.8641 C.ar    4  LIG4       -0.0523
     70 H           9.7311   11.2587    2.6962 H       4  LIG4        0.0623
     71 C           8.9385   12.8560    1.7175 C.ar    4  LIG4       -0.0613
     72 H           8.9776   13.4490    2.4589 H       4  LIG4        0.0618
     73 C           8.4493   13.3051    0.5214 C.ar    4  LIG4       -0.0617
     74 H           8.1640   14.2058    0.4267 H       4  LIG4        0.0618
     75 C           8.3765   12.4434   -0.5347 C.ar    4  LIG4       -0.0613
     76 H           8.0225   12.7508   -1.3614 H       4  LIG4        0.0618
     77 C           8.8081   11.1291   -0.4267 C.ar    4  LIG4       -0.0523
     78 H           8.7643   10.5497   -1.1774 H       4  LIG4        0.0623
     79 C          13.6070   12.3238    4.1030 C.3     5  LIG5        0.1805
     80 H          13.0764   12.0444    4.9030 H       5  LIG5        0.0806
     81 CL         12.5081   12.7412    2.8376 Cl      5  LIG5       -0.0870
     82 CL         14.5626   13.7316    4.5363 Cl      5  LIG5       -0.0870
     83 CL         14.7015   11.0200    3.6816 Cl      5  LIG5       -0.0870
@<TRIPOS>BOND
     1    61    60    1
     2    63    62    1
     3    60    62   ar
     4    60    58   ar
     5    62    64   ar
     6    59    58    1
     7    76    75    1
     8    58    57   ar
     9    78    77    1
    10    64    65    1
    11    64    66   ar
    12    75    77   ar
    13    75    73   ar
    14    77    68   ar
    15    57    66   ar
    16    57    45    1
    17    66    67    1
    18    56    55    1
    19    54    53    1
    20    74    73    1
    21    55    53   ar
    22    55    46   ar
    23    73    71   ar
    24    53    51   ar
    25    68    45    1
    26    68    69   ar
    27    45    46    1
    28    45    41    1
    29    46    47   ar
    30    51    52    1
    31    51    49   ar
    32    47    49   ar
    33    47    48    1
    34    49    50    1
    35    71    69   ar
    36    71    72    1
    37    69    70    1
    38    44    41    1
    39    41    43    1
    40    41    42    1
    41    81    79    1
    42    12    11    1
    43    83    79    1
    44    79    82    1
    45    79    80    1
    46    11    13   ar
    47    11     9   ar
    48    14    13    1
    49    10     9    1
    50    13    15   ar
    51     9     8   ar
    52     5     3    1
    53    15    16    1
    54    15    17   ar
    55     4     3    1
    56     8    17   ar
    57     8     7    1
    58     3     6    1
    59     3     7    1
    60    40    39    1
    61    17    18    1
    62    38    37    1
    63    39    37   ar
    64    39    32   ar
    65    37    35   ar
    66     7    32    1
    67     7    19    1
    68    32    30   ar
    69    35    36    1
    70    35    33   ar
    71    30    33   ar
    72    30    31    1
    73    33    34    1
    74    29    28    1
    75    19    28   ar
    76    19    20   ar
    77    28    26   ar
    78    21    20    1
    79    20    22   ar
    80    26    27    1
    81    26    24   ar
    82    22    24   ar
    83    22    23    1
    84    24    25    1
