@<TRIPOS>MOLECULE
1,6-dicianohexane 1,6-diiodododecafluorohexane
 21 19 0 0 0
SMALL
GASTEIGER

@<TRIPOS>ATOM
      1 N           2.9257    2.1114    4.0348 N.1     1  LIG1       -0.1966
      2 C           1.9738    1.7625    3.5125 C.1     1  LIG1        0.0625
      3 C           0.7725    1.3007    2.8038 C.3     1  LIG1        0.0348
      4 H           0.2594    2.1354    2.6457 H       1  LIG1        0.0418
      5 H           0.3096    0.6898    3.3446 H       1  LIG1        0.0418
      6 C           1.1015    0.7108    1.4343 C.3     1  LIG1       -0.0402
      7 H           1.5569    1.3370    0.9175 H       1  LIG1        0.0275
      8 H           1.6569   -0.0360    1.5974 H       1  LIG1        0.0275
      9 C          -0.1537    0.2932    0.6856 C.3     1  LIG1       -0.0521
     10 H          -0.7452    1.0699    0.5461 H       1  LIG1        0.0266
     11 H          -0.6465   -0.3784    1.2280 H       1  LIG1        0.0266
     12 I           4.6942    3.7246    5.7884 I       2  LIG2        0.0047
     13 C           5.8828    4.9183    7.1192 C.3     2  LIG2        0.3645
     14 C           5.0476    5.4506    8.3006 C.3     2  LIG2        0.3870
     15 C           5.8439    6.2186    9.4013 C.3     2  LIG2        0.3847
     16 F           6.4319    5.9535    6.4671 F       2  LIG2       -0.1872
     17 F           6.8930    4.1666    7.6144 F       2  LIG2       -0.1872
     18 F           4.0983    6.2614    7.8113 F       2  LIG2       -0.1913
     19 F           4.4501    4.4032    8.8986 F       2  LIG2       -0.1913
     20 F           6.4894    7.2423    8.8135 F       2  LIG2       -0.1920
     21 F           6.7590    5.3855    9.9196 F       2  LIG2       -0.1920
@<TRIPOS>BOND
     1    10     9    1
     2     9    11    1
     3     9     6    1
     4     7     6    1
     5     6     8    1
     6     6     3    1
     7     4     3    1
     8     3     5    1
     9     3     2    1
    10     2     1    3
    11    12    13    1
    12    16    13    1
    13    13    17    1
    14    13    14    1
    15    18    14    1
    16    14    19    1
    17    14    15    1
    18    20    15    1
    19    15    21    1
