@<TRIPOS>MOLECULE
?
 49 52 0 0 0
SMALL
GASTEIGER

@<TRIPOS>ATOM
      1 C           7.6797   10.8472    8.5005 C.ar    1  LIG1        0.1313
      2 C           8.4319    9.6262    8.4423 C.ar    1  LIG1        0.1479
      3 C           9.7893    9.6496    8.4735 C.ar    1  LIG1       -0.0177
      4 H          10.2793    8.8398    8.3911 H       1  LIG1        0.0655
      5 C          10.4774   10.8783    8.6284 C.ar    1  LIG1       -0.0562
      6 H          11.4273   10.8804    8.6425 H       1  LIG1        0.0619
      7 C           9.8068   12.0565    8.7566 C.ar    1  LIG1       -0.0340
      8 H          10.2863   12.8666    8.8863 H       1  LIG1        0.0639
      9 C           8.3936   12.0695    8.6962 C.ar    1  LIG1        0.0936
     10 C           5.7052   12.0007    8.3790 C.ar    1  LIG1        0.0936
     11 C           4.3099   12.0299    8.1035 C.ar    1  LIG1       -0.0340
     12 H           3.8422   11.2263    7.9093 H       1  LIG1        0.0639
     13 C           3.6560   13.2158    8.1212 C.ar    1  LIG1       -0.0562
     14 H           2.7312   13.2373    7.9048 H       1  LIG1        0.0619
     15 C           4.3157   14.4254    8.4548 C.ar    1  LIG1       -0.0177
     16 H           3.8241   15.2376    8.4794 H       1  LIG1        0.0655
     17 C           5.6471   14.4353    8.7408 C.ar    1  LIG1        0.1479
     18 C           6.4069   13.2201    8.6586 C.ar    1  LIG1        0.1313
     19 C           7.0056   15.8070   10.2001 C.3     1  LIG1        0.1129
     20 H           7.3385   16.7381   10.2539 H       1  LIG1        0.0720
     21 H           7.7927   15.2068   10.1687 H       1  LIG1        0.0720
     22 C           6.2115   15.5028   11.4309 C.3     1  LIG1        0.0818
     23 H           6.6697   15.8949   12.2155 H       1  LIG1        0.0594
     24 H           5.3221   15.9328   11.3552 H       1  LIG1        0.0594
     25 C           7.1478   13.4854   12.2779 C.3     1  LIG1        0.0711
     26 H           7.3144   13.8922   13.1642 H       1  LIG1        0.0583
     27 H           7.9601   13.5926   11.7233 H       1  LIG1        0.0583
     28 C           6.7996   12.0212   12.4267 C.3     1  LIG1        0.0711
     29 H           5.9297   11.9345   12.8919 H       1  LIG1        0.0583
     30 H           6.7108   11.6112   11.5303 H       1  LIG1        0.0583
     31 C           8.9062   10.8618   12.3884 C.3     1  LIG1        0.0711
     32 H           9.7459   11.0036   12.8934 H       1  LIG1        0.0583
     33 H           8.9638   11.3814   11.5482 H       1  LIG1        0.0583
     34 C           8.7584    9.4014   12.0638 C.3     1  LIG1        0.0711
     35 H           9.6005    9.0542   11.6754 H       1  LIG1        0.0583
     36 H           8.5617    8.8896   12.8889 H       1  LIG1        0.0583
     37 C           7.5380    7.9203   10.6479 C.3     1  LIG1        0.0818
     38 H           6.9775    7.3950   11.2729 H       1  LIG1        0.0594
     39 H           8.4203    7.4779   10.5726 H       1  LIG1        0.0594
     40 C           6.8816    7.9911    9.3049 C.3     1  LIG1        0.1129
     41 H           6.5183    7.0989    9.0749 H       1  LIG1        0.0720
     42 H           6.1222    8.6255    9.3487 H       1  LIG1        0.0720
     43 N           6.3495   10.8168    8.3324 N.ar    1  LIG1       -0.2398
     44 N           7.7405   13.2457    8.8120 N.ar    1  LIG1       -0.2398
     45 O           7.7919    8.4147    8.2612 O.3     1  LIG1       -0.4875
     46 O           7.6971    9.2493   11.1348 O.3     1  LIG1       -0.3742
     47 O           7.8005   11.3338   13.1645 O.3     1  LIG1       -0.3752
     48 O           6.0330   14.1048   11.6500 O.3     1  LIG1       -0.3742
     49 O           6.2456   15.6487    8.9817 O.3     1  LIG1       -0.4875
@<TRIPOS>BOND
     1    14    13    1
     2    12    11    1
     3    11    13   ar
     4    11    10   ar
     5    13    15   ar
     6    45     2    1
     7    45    40    1
     8    43    10   ar
     9    43     1   ar
    10    10    18   ar
    11     4     3    1
    12     2     3   ar
    13     2     1   ar
    14    15    16    1
    15    15    17   ar
    16     3     5   ar
    17     1     9   ar
    18     5     6    1
    19     5     7   ar
    20    18    17   ar
    21    18    44   ar
    22     9     7   ar
    23     9    44   ar
    24    17    49    1
    25     7     8    1
    26    49    19    1
    27    41    40    1
    28    40    42    1
    29    40    37    1
    30    21    19    1
    31    19    20    1
    32    19    22    1
    33    39    37    1
    34    37    46    1
    35    37    38    1
    36    46    34    1
    37    24    22    1
    38    22    48    1
    39    22    23    1
    40    30    28    1
    41    33    31    1
    42    48    25    1
    43    35    34    1
    44    27    25    1
    45    34    31    1
    46    34    36    1
    47    25    28    1
    48    25    26    1
    49    31    32    1
    50    31    47    1
    51    28    29    1
    52    28    47    1
