@<TRIPOS>MOLECULE
1,6-dicianohexane 1,8-diiodohexadecafluorohexane
 24 22 0 0 0
SMALL
GASTEIGER

@<TRIPOS>ATOM
      1 I           5.2209    5.7522    4.3678 I       1  LIG1        0.0047
      2 C           6.4136    7.0530    3.1672 C.3     1  LIG1        0.3645
      3 F           7.2453    6.3601    2.4400 F       1  LIG1       -0.1872
      4 F           7.1391    7.8218    3.9682 F       1  LIG1       -0.1872
      5 C           5.5833    7.9689    2.2618 C.3     1  LIG1        0.3870
      6 F           4.8301    8.7372    3.0225 F       1  LIG1       -0.1913
      7 F           4.7782    7.2122    1.5462 F       1  LIG1       -0.1913
      8 C           6.3942    8.8691    1.3083 C.3     1  LIG1        0.3846
      9 F           6.9981    8.0788    0.4270 F       1  LIG1       -0.1920
     10 F           7.3296    9.5025    1.9990 F       1  LIG1       -0.1920
     11 C           5.5754    9.9234    0.5346 C.3     1  LIG1        0.3840
     12 F           5.0975   10.7805    1.4181 F       1  LIG1       -0.1920
     13 F           4.5454    9.3224   -0.0441 F       1  LIG1       -0.1920
     14 N           3.6272    3.9082    6.1562 N.1     2  LIG2       -0.1966
     15 C           2.6981    3.2683    6.1947 C.1     2  LIG2        0.0625
     16 C           1.5039    2.4333    6.2525 C.3     2  LIG2        0.0348
     17 C           1.5635    1.4160    7.3714 C.3     2  LIG2       -0.0402
     18 C           0.3013    0.5909    7.4516 C.3     2  LIG2       -0.0521
     19 H           1.4350    2.0526    5.5221 H       2  LIG2        0.0418
     20 H           0.7248    2.9713    6.4371 H       2  LIG2        0.0418
     21 H           1.6939    1.8643    8.2350 H       2  LIG2        0.0275
     22 H           2.2792    0.8547    7.1916 H       2  LIG2        0.0275
     23 H           0.1455    0.1058    6.6779 H       2  LIG2        0.0266
     24 H          -0.4377    1.1065    7.5447 H       2  LIG2        0.0266
@<TRIPOS>BOND
     1    13    11    1
     2     9     8    1
     3    11     8    1
     4    11    12    1
     5     8    10    1
     6     8     5    1
     7     7     5    1
     8     5     6    1
     9     5     2    1
    10     3     2    1
    11     2     4    1
    12     2     1    1
    13    19    16    1
    14    14    15    3
    15    15    16    1
    16    16    20    1
    17    16    17    1
    18    23    18    1
    19    22    17    1
    20    17    18    1
    21    17    21    1
    22    18    24    1
