@<TRIPOS>MOLECULE
C16 H22 Br2 O5
 45 48 0 0 0
SMALL
GASTEIGER

@<TRIPOS>ATOM
      1 BR          2.1097   12.9694    7.4357 Br      1  LIG1       -0.0702
      2 BR          7.8176   14.4576    6.9332 Br      1  LIG1       -0.0750
      3 O           5.5101   16.8651    6.3875 O.3     1  LIG1       -0.3616
      4 O           5.5969   12.3682    8.0779 O.3     1  LIG1       -0.3491
      5 O           5.2181   16.6553    2.8218 O.3     1  LIG1       -0.3774
      6 O           4.9015   12.6873    5.8789 O.3     1  LIG1       -0.3491
      7 O           2.7565   15.7570    6.1666 O.2     1  LIG1       -0.2926
      8 C           5.3620   17.5410    5.1225 C.3     1  LIG1        0.0753
      9 H           5.9018   18.3479    5.0958 H       1  LIG1        0.0586
     10 H           4.4349   17.7777    4.9633 H       1  LIG1        0.0586
     11 C           5.0803   13.2575    7.1428 C.3     1  LIG1        0.2109
     12 C           5.6074   14.9824    8.7315 C.3     1  LIG1       -0.0129
     13 H           6.1825   14.4463    9.3162 H       1  LIG1        0.0320
     14 C           4.1322   14.5198    8.9123 C.3     1  LIG1       -0.0094
     15 H           4.0952   13.7900    9.5659 H       1  LIG1        0.0323
     16 C           5.9980   11.8984    5.3825 C.3     1  LIG1        0.0398
     17 H           5.7761   11.5524    4.5152 H       1  LIG1        0.0525
     18 H           6.1669   11.1705    5.9847 H       1  LIG1        0.0525
     19 H           6.7824   12.4489    5.3168 H       1  LIG1        0.0525
     20 C           5.8496   16.5244    4.0908 C.3     1  LIG1        0.0847
     21 H           6.8223   16.5943    3.9881 H       1  LIG1        0.0620
     22 C           5.2018   15.5006    6.1954 C.3     1  LIG1        0.1514
     23 C           3.3331   15.7229    9.4384 C.3     1  LIG1       -0.0481
     24 H           2.4740   15.7839    8.9925 H       1  LIG1        0.0269
     25 H           3.1835   15.6422   10.3931 H       1  LIG1        0.0269
     26 C           5.6460   16.4293    9.1939 C.3     1  LIG1       -0.0483
     27 H           6.2184   16.9565    8.6133 H       1  LIG1        0.0268
     28 H           5.9877   16.4867   10.1002 H       1  LIG1        0.0268
     29 C           5.8893   14.5915    7.2538 C.3     1  LIG1        0.1204
     30 C           4.8541   11.1651    8.2927 C.3     1  LIG1        0.0398
     31 H           5.2996   10.6254    8.9503 H       1  LIG1        0.0525
     32 H           4.7920   10.6756    7.4685 H       1  LIG1        0.0525
     33 H           3.9719   11.3838    8.6020 H       1  LIG1        0.0525
     34 C           5.5295   17.8924    2.1939 C.3     1  LIG1        0.0369
     35 H           5.0863   17.9409    1.3441 H       1  LIG1        0.0524
     36 H           6.4791   17.9552    2.0624 H       1  LIG1        0.0524
     37 H           5.2361   18.6186    2.7498 H       1  LIG1        0.0524
     38 C           3.7707   13.9819    7.5251 C.3     1  LIG1        0.1448
     39 C           4.1851   16.9475    9.1312 C.3     1  LIG1       -0.0524
     40 H           4.0377   17.6450    9.7878 H       1  LIG1        0.0265
     41 H           3.9807   17.2972    8.2495 H       1  LIG1        0.0265
     42 C           3.7254   15.1617    6.5519 C.2     1  LIG1        0.1884
     43 C           5.4896   15.1886    4.7033 C.3     1  LIG1        0.0133
     44 H           6.2255   14.5628    4.6190 H       1  LIG1        0.0324
     45 H           4.7061   14.8121    4.2727 H       1  LIG1        0.0324
@<TRIPOS>BOND
     1    35    34    1
     2    36    34    1
     3    34    37    1
     4    34     5    1
     5     5    20    1
     6    21    20    1
     7    20    43    1
     8    20     8    1
     9    45    43    1
    10    17    16    1
    11    44    43    1
    12    43    22    1
    13    10     8    1
    14     9     8    1
    15     8     3    1
    16    19    16    1
    17    16     6    1
    18    16    18    1
    19     6    11    1
    20     7    42    2
    21    22     3    1
    22    22    42    1
    23    22    29    1
    24    42    38    1
    25     2    29    1
    26    11    29    1
    27    11    38    1
    28    11     4    1
    29    29    12    1
    30     1    38    1
    31    32    30    1
    32    38    14    1
    33     4    30    1
    34    41    39    1
    35    30    33    1
    36    30    31    1
    37    27    26    1
    38    12    14    1
    39    12    26    1
    40    12    13    1
    41    14    23    1
    42    14    15    1
    43    24    23    1
    44    39    26    1
    45    39    23    1
    46    39    40    1
    47    26    28    1
    48    23    25    1
