@<TRIPOS>MOLECULE
pyrazine / heptanoic acid
 28 26 0 0 0
SMALL
GASTEIGER

@<TRIPOS>ATOM
      1 O           2.7180    2.1683    2.0874 O.3     1  LIG1       -0.4806
      2 H           3.3372    1.7044    1.5633 H       1  LIG1        0.2951
      3 O           4.1582    3.8527    1.8716 O.2     1  LIG1       -0.2510
      4 C           3.1167    3.4169    2.2981 C.2     1  LIG1        0.3047
      5 C           2.1266    4.1846    3.1290 C.3     1  LIG1        0.0448
      6 H           2.0322    3.7294    4.0028 H       1  LIG1        0.0377
      7 H           1.2456    4.1484    2.6784 H       1  LIG1        0.0377
      8 C           2.4778    5.6412    3.3812 C.3     1  LIG1       -0.0430
      9 H           2.6066    6.1038    2.5160 H       1  LIG1        0.0270
     10 H           3.3278    5.6923    3.8861 H       1  LIG1        0.0270
     11 C           1.3779    6.3401    4.1697 C.3     1  LIG1       -0.0526
     12 H           0.5302    6.2686    3.6633 H       1  LIG1        0.0265
     13 H           1.2537    5.8649    5.0293 H       1  LIG1        0.0265
     14 C           1.6478    7.8080    4.4601 C.3     1  LIG1       -0.0533
     15 H           1.6960    8.3041    3.6043 H       1  LIG1        0.0265
     16 H           2.5253    7.8931    4.9099 H       1  LIG1        0.0265
     17 C           0.5736    8.4331    5.3400 C.3     1  LIG1       -0.0559
     18 H           0.5182    7.9236    6.1874 H       1  LIG1        0.0263
     19 H          -0.3009    8.3524    4.8831 H       1  LIG1        0.0263
     20 C           0.8243    9.9002    5.6643 C.3     1  LIG1       -0.0653
     21 H           1.6747    9.9883    6.1444 H       1  LIG1        0.0230
     22 H           0.0962   10.2392    6.2249 H       1  LIG1        0.0230
     23 H           0.8636   10.4166    4.8321 H       1  LIG1        0.0230
     24 N           4.5299    0.6952    0.6940 N.2     1  LIG1       -0.2824
     25 C           5.6335    1.2982    0.2551 C.2     1  LIG1        0.0403
     26 H           5.7509    2.2254    0.4227 H       1  LIG1        0.0840
     27 C           4.4076   -0.6095    0.4392 C.3     1  LIG1        0.0993
     28 H           3.6345   -1.0736    0.7394 H       1  LIG1        0.0588
@<TRIPOS>BOND
     1    25    26    1
     2    25    24    2
     3    27    24    1
     4    27    28    1
     5     2     1    1
     6     3     4    2
     7     1     4    1
     8     4     5    1
     9     9     8    1
    10     7     5    1
    11     5     8    1
    12     5     6    1
    13     8    10    1
    14     8    11    1
    15    15    14    1
    16    12    11    1
    17    11    14    1
    18    11    13    1
    19    14    16    1
    20    14    17    1
    21    23    20    1
    22    19    17    1
    23    17    20    1
    24    17    18    1
    25    20    21    1
    26    20    22    1
