@<TRIPOS>MOLECULE
7103617.cif
 48 51 0 0 0
SMALL
GASTEIGER

@<TRIPOS>ATOM
      1 P           1.6142   -2.0891    2.4130 P.3     1  LIG1        1.0000
      2 H           1.9063   -2.3332    1.1313 H       1  LIG1        0.0000
      3 H           0.5850   -2.8466    2.6371 H       1  LIG1        0.0000
      4 F           0.6399   -2.8229    5.0328 F       1  LIG1        0.0000
      5 F           0.4174   -3.9506    7.4246 F       1  LIG1        0.0000
      6 F           2.6318   -4.8518    8.7467 F       1  LIG1        0.0000
      7 F           5.0778   -4.5183    7.6395 F       1  LIG1        0.0000
      8 F           5.3208   -3.3503    5.2452 F       1  LIG1        0.0000
      9 F           2.0776   -4.9028    2.6308 F       1  LIG1        0.0000
     10 F           3.2242   -6.9625    1.4025 F       1  LIG1        0.0000
     11 F           5.8510   -6.8393    0.6797 F       1  LIG1        0.0000
     12 F           7.2948   -4.6163    1.2596 F       1  LIG1        0.0000
     13 F           6.2040   -2.5964    2.5640 F       1  LIG1        0.0000
     14 F           4.4025   -1.0120    1.2261 F       1  LIG1        0.0000
     15 F           5.3457    1.4776    1.2092 F       1  LIG1        0.0000
     16 F           5.3851    2.9427    3.4780 F       1  LIG1        0.0000
     17 F           4.4501    1.8504    5.7921 F       1  LIG1        0.0000
     18 F           3.5114   -0.5924    5.8487 F       1  LIG1        0.0000
     19 C           1.0822   -0.3720    2.4271 C.ar    1  LIG1        0.0000
     20 C           1.2944    0.4172    1.3160 C.ar    1  LIG1        0.0000
     21 H           1.6351    0.0361    0.5391 H       1  LIG1        0.0000
     22 C           1.0063    1.7655    1.3477 C.ar    1  LIG1        0.0000
     23 H           1.1471    2.2917    0.5935 H       1  LIG1        0.0000
     24 C           0.5136    2.3212    2.4891 C.ar    1  LIG1        0.0000
     25 H           0.3285    3.2322    2.5195 H       1  LIG1        0.0000
     26 C           0.2914    1.5450    3.5887 C.ar    1  LIG1        0.0000
     27 H          -0.0506    1.9316    4.3632 H       1  LIG1        0.0000
     28 C           0.5669    0.2038    3.5647 C.ar    1  LIG1        0.0000
     29 H           0.4061   -0.3178    4.3189 H       1  LIG1        0.0000
     30 C           2.9952   -3.0887    4.9883 C.ar    1  LIG1        0.0000
     31 C           1.7858   -3.2588    5.6172 C.ar    1  LIG1        0.0000
     32 C           1.6374   -3.8321    6.8776 C.ar    1  LIG1        0.0000
     33 C           2.7511   -4.2738    7.5318 C.ar    1  LIG1        0.0000
     34 C           3.9827   -4.1101    6.9813 C.ar    1  LIG1        0.0000
     35 C           4.0775   -3.5257    5.7387 C.ar    1  LIG1        0.0000
     36 C           4.0621   -3.6311    2.6447 C.ar    1  LIG1        0.0000
     37 C           3.3898   -4.7995    2.3170 C.ar    1  LIG1        0.0000
     38 C           3.9557   -5.8723    1.6817 C.ar    1  LIG1        0.0000
     39 C           5.2771   -5.8119    1.3274 C.ar    1  LIG1        0.0000
     40 C           6.0012   -4.6842    1.6134 C.ar    1  LIG1        0.0000
     41 C           5.3964   -3.6466    2.2689 C.ar    1  LIG1        0.0000
     42 C           3.9707   -0.9760    3.5508 C.ar    1  LIG1        0.0000
     43 C           4.4387   -0.3491    2.4094 C.ar    1  LIG1        0.0000
     44 C           4.9104    0.9328    2.3587 C.ar    1  LIG1        0.0000
     45 C           4.9278    1.6834    3.5027 C.ar    1  LIG1        0.0000
     46 C           4.4594    1.1366    4.6593 C.ar    1  LIG1        0.0000
     47 C           3.9947   -0.1623    4.6656 C.ar    1  LIG1        0.0000
     48 B           3.2937   -2.4654    3.5065 B       1  LIG1        0.0000
@<TRIPOS>BOND
     1    21    20    1
     2    23    22    1
     3    11    39    1
     4     2     1    1
     5    15    44    1
     6    14    43    1
     7    12    40    1
     8    20    22   ar
     9    20    19   ar
    10    39    40   ar
    11    39    38   ar
    12    22    24   ar
    13    10    38    1
    14    40    41   ar
    15    38    37   ar
    16    41    13    1
    17    41    36   ar
    18    37     9    1
    19    37    36   ar
    20    44    43   ar
    21    44    45   ar
    22    43    42   ar
    23     1    19    1
    24     1     3    1
    25     1    48    1
    26    19    28   ar
    27    24    25    1
    28    24    26   ar
    29    36    48    1
    30    16    45    1
    31    45    46   ar
    32    48    42    1
    33    48    30    1
    34    42    47   ar
    35    28    26   ar
    36    28    29    1
    37    26    27    1
    38    46    47   ar
    39    46    17    1
    40    47    18    1
    41    30    31   ar
    42    30    35   ar
    43     4    31    1
    44     8    35    1
    45    31    32   ar
    46    35    34   ar
    47    32     5    1
    48    32    33   ar
    49    34    33   ar
    50    34     7    1
    51    33     6    1
