@<TRIPOS>MOLECULE
(S)-2,5-dodecamethylene-1-methylimidazole_(+)-10-camphorsulfonic acid
 284 292 0 0 0
SMALL
GASTEIGER

@<TRIPOS>ATOM
      1 N           7.0319    8.9788   12.0800 N.pl3   1  LIG1       -0.3114
      2 C           7.2813   10.1300   12.7326 C.3     1  LIG1        0.1370
      3 N           7.7560    9.7956   13.9444 N.pl3   1  LIG1       -0.3250
      4 H           7.9849   10.3687   14.5723 H       1  LIG1        0.1477
      5 C           7.8339    8.4297   14.0594 C.2     1  LIG1        0.0082
      6 H           8.1417    7.9449   14.8168 H       1  LIG1        0.0794
      7 C           7.3890    7.8948   12.8860 C.2     1  LIG1        0.0216
      8 C           6.3170    8.8746   10.7832 C.3     1  LIG1        0.0025
      9 H           5.7281    9.6497   10.6714 H       1  LIG1        0.0428
     10 H           5.7820    8.0525   10.7697 H       1  LIG1        0.0428
     11 H           6.9686    8.8525   10.0531 H       1  LIG1        0.0428
     12 C           7.1455   11.5151   12.2129 C.3     1  LIG1       -0.0112
     13 H           6.7032   12.0780   12.8973 H       1  LIG1        0.0303
     14 H           6.5706   11.5062   11.4077 H       1  LIG1        0.0303
     15 C           8.5111   12.1384   11.8518 C.3     1  LIG1       -0.0495
     16 H           9.0390   12.2386   12.6837 H       1  LIG1        0.0266
     17 H           8.3562   13.0460   11.4864 H       1  LIG1        0.0266
     18 C           9.3508   11.3339   10.8290 C.3     1  LIG1       -0.0529
     19 H           8.7696   10.6782   10.3678 H       1  LIG1        0.0265
     20 H           9.7218   11.9483   10.1486 H       1  LIG1        0.0265
     21 C          10.5074   10.5898   11.5418 C.3     1  LIG1       -0.0531
     22 H          11.1748   11.2543   11.8461 H       1  LIG1        0.0265
     23 H          10.1489   10.1359   12.3436 H       1  LIG1        0.0265
     24 C          11.1969    9.5686   10.6742 C.3     1  LIG1       -0.0531
     25 H          12.0759    9.3565   11.0789 H       1  LIG1        0.0265
     26 H          11.3676    9.9753    9.7889 H       1  LIG1        0.0265
     27 C          10.4456    8.2808   10.4693 C.3     1  LIG1       -0.0531
     28 H          10.8359    7.8020    9.6961 H       1  LIG1        0.0265
     29 H           9.5036    8.4915   10.2498 H       1  LIG1        0.0265
     30 C          10.4746    7.3452   11.7101 C.3     1  LIG1       -0.0530
     31 H          11.4176    7.1374   11.9248 H       1  LIG1        0.0265
     32 H          10.0960    7.8344   12.4813 H       1  LIG1        0.0265
     33 C           9.7251    6.0500   11.5496 C.3     1  LIG1       -0.0527
     34 H           9.8602    5.5196   12.3745 H       1  LIG1        0.0265
     35 H          10.1467    5.5476   10.8091 H       1  LIG1        0.0265
     36 C           8.2213    6.1045   11.2748 C.3     1  LIG1       -0.0479
     37 H           8.0679    6.7543   10.5449 H       1  LIG1        0.0269
     38 H           7.9413    5.2160   10.9384 H       1  LIG1        0.0269
     39 C           7.3026    6.4803   12.4403 C.3     1  LIG1       -0.0134
     40 H           6.3684    6.2917   12.1750 H       1  LIG1        0.0326
     41 H           7.5188    5.8953   13.2092 H       1  LIG1        0.0326
     42 N          12.7558    8.6822   14.6004 N.pl3   2  LIG2       -0.3114
     43 C          13.6108    9.4301   13.8694 C.3     2  LIG2        0.1370
     44 N          13.2011   10.6876   13.9607 N.pl3   2  LIG2       -0.3250
     45 H          13.5762   11.3692   13.5493 H       2  LIG2        0.1477
     46 C          12.1076   10.7725   14.7896 C.2     2  LIG2        0.0082
     47 H          11.6359   11.5637   15.0220 H       2  LIG2        0.0794
     48 C          11.8280    9.5141   15.2162 C.2     2  LIG2        0.0216
     49 C          12.7956    7.2214   14.7269 C.3     2  LIG2        0.0025
     50 H          13.2428    6.8369   13.9428 H       2  LIG2        0.0428
     51 H          11.8821    6.8737   14.7859 H       2  LIG2        0.0428
     52 H          13.2916    6.9768   15.5363 H       2  LIG2        0.0428
     53 C          14.9037    8.9660   13.2975 C.3     2  LIG2       -0.0112
     54 H          15.2638    9.6556   12.6865 H       2  LIG2        0.0303
     55 H          14.7614    8.1350   12.7792 H       2  LIG2        0.0303
     56 C          15.9160    8.7023   14.4444 C.3     2  LIG2       -0.0495
     57 H          15.5370    8.0156   15.0501 H       2  LIG2        0.0266
     58 H          16.7473    8.3309   14.0552 H       2  LIG2        0.0266
     59 C          16.2704    9.9282   15.2631 C.3     2  LIG2       -0.0529
     60 H          16.7013   10.5883   14.6650 H       2  LIG2        0.0265
     61 H          15.4301   10.3348   15.5953 H       2  LIG2        0.0265
     62 C          17.1864    9.6909   16.4503 C.3     2  LIG2       -0.0531
     63 H          17.5107   10.5691   16.7701 H       2  LIG2        0.0265
     64 H          17.9761    9.1826   16.1349 H       2  LIG2        0.0265
     65 C          16.5728    8.9321   17.6548 C.3     2  LIG2       -0.0531
     66 H          16.3854    8.0009   17.3743 H       2  LIG2        0.0265
     67 H          17.2469    8.8938   18.3777 H       2  LIG2        0.0265
     68 C          15.2895    9.5348   18.2231 C.3     2  LIG2       -0.0531
     69 H          15.2626   10.5013   18.0067 H       2  LIG2        0.0265
     70 H          15.2989    9.4464   19.2096 H       2  LIG2        0.0265
     71 C          14.0205    8.8614   17.6711 C.3     2  LIG2       -0.0530
     72 H          14.0598    8.8938   16.6830 H       2  LIG2        0.0265
     73 H          14.0404    7.9066   17.9336 H       2  LIG2        0.0265
     74 C          12.6858    9.4478   18.1110 C.3     2  LIG2       -0.0527
     75 H          12.6098   10.3746   17.7734 H       2  LIG2        0.0265
     76 H          12.6538    9.4788   19.1000 H       2  LIG2        0.0265
     77 C          11.4855    8.6124   17.5857 C.3     2  LIG2       -0.0479
     78 H          11.7860    7.6738   17.4868 H       2  LIG2        0.0269
     79 H          10.7769    8.6242   18.2793 H       2  LIG2        0.0269
     80 C          10.8541    9.0529   16.2513 C.3     2  LIG2       -0.0134
     81 H          10.3371    8.2941   15.8820 H       2  LIG2        0.0326
     82 H          10.2159    9.7882   16.4328 H       2  LIG2        0.0326
     83 N          10.9922    9.2208   26.0910 N.pl3   3  LIG3       -0.3114
     84 C          10.7444    8.1026   26.7967 C.3     3  LIG3        0.1370
     85 N          10.2802    8.4724   27.9822 N.pl3   3  LIG3       -0.3250
     86 H          10.0578    7.9228   28.6331 H       3  LIG3        0.1477
     87 C          10.1981    9.8412   28.0432 C.2     3  LIG3        0.0082
     88 H           9.8896   10.3555   28.7792 H       3  LIG3        0.0794
     89 C          10.6424   10.3231   26.8518 C.2     3  LIG3        0.0216
     90 C          11.6892    9.2710   24.7929 C.3     3  LIG3        0.0025
     91 H          12.2509    8.4739   24.6928 H       3  LIG3        0.0428
     92 H          12.2488   10.0726   24.7546 H       3  LIG3        0.0428
     93 H          11.0286    9.2975   24.0689 H       3  LIG3        0.0428
     94 C          10.8600    6.6910   26.3246 C.3     3  LIG3       -0.0112
     95 H          11.3271    6.1546   27.0143 H       3  LIG3        0.0303
     96 H          11.4094    6.6689   25.4994 H       3  LIG3        0.0303
     97 C           9.5000    6.0603   26.0376 C.3     3  LIG3       -0.0495
     98 H           9.0171    5.9557   26.8934 H       3  LIG3        0.0266
     99 H           9.6475    5.1542   25.6652 H       3  LIG3        0.0266
    100 C           8.6086    6.8442   25.0694 C.3     3  LIG3       -0.0529
    101 H           8.1765    6.2062   24.4483 H       3  LIG3        0.0265
    102 H           9.1789    7.4483   24.5298 H       3  LIG3        0.0265
    103 C           7.5163    7.6797   25.7619 C.3     3  LIG3       -0.0531
    104 H           6.8482    7.0652   26.1571 H       3  LIG3        0.0265
    105 H           7.9278    8.1910   26.5028 H       3  LIG3        0.0265
    106 C           6.8011    8.6507   24.8345 C.3     3  LIG3       -0.0531
    107 H           5.9300    8.8909   25.2380 H       3  LIG3        0.0265
    108 H           6.6173    8.1939   23.9761 H       3  LIG3        0.0265
    109 C           7.5766    9.9341   24.5481 C.3     3  LIG3       -0.0531
    110 H           7.1868   10.3746   23.7513 H       3  LIG3        0.0265
    111 H           8.5136    9.7013   24.3359 H       3  LIG3        0.0265
    112 C           7.5622   10.9257   25.7248 C.3     3  LIG3       -0.0530
    113 H           6.6214   11.1497   25.9379 H       3  LIG3        0.0265
    114 H           7.9492   10.4792   26.5196 H       3  LIG3        0.0265
    115 C           8.3249   12.2209   25.4758 C.3     3  LIG3       -0.0527
    116 H           8.2084   12.7999   26.2695 H       3  LIG3        0.0265
    117 H           7.8984   12.6821   24.7097 H       3  LIG3        0.0265
    118 C           9.8340   12.1148   25.1838 C.3     3  LIG3       -0.0479
    119 H          10.1418   12.9841   24.8249 H       3  LIG3        0.0269
    120 H           9.9643   11.4385   24.4708 H       3  LIG3        0.0269
    121 C          10.7397   11.7376   26.3740 C.3     3  LIG3       -0.0134
    122 H          11.6785   11.9144   26.1177 H       3  LIG3        0.0326
    123 H          10.5217   12.3373   27.1323 H       3  LIG3        0.0326
    124 N           5.2596    9.6251   28.6219 N.pl3   4  LIG4       -0.3114
    125 C           4.4111    8.8408   27.9288 C.3     4  LIG4        0.1370
    126 N           4.8046    7.5839   28.1106 N.pl3   4  LIG4       -0.3250
    127 H           4.4293    6.8796   27.7394 H       4  LIG4        0.1477
    128 C           5.8944    7.5456   28.9737 C.2     4  LIG4        0.0082
    129 H           6.3546    6.7691   29.2683 H       4  LIG4        0.0794
    130 C           6.1715    8.8201   29.3104 C.2     4  LIG4        0.0216
    131 C           5.2133   11.0937   28.6705 C.3     4  LIG4        0.0025
    132 H           4.7841   11.4340   27.8574 H       4  LIG4        0.0428
    133 H           6.1263   11.4473   28.7287 H       4  LIG4        0.0428
    134 H           4.6997   11.3781   29.4566 H       4  LIG4        0.0428
    135 C           3.1139    9.2681   27.3220 C.3     4  LIG4       -0.0112
    136 H           2.7608    8.5505   26.7388 H       4  LIG4        0.0303
    137 H           3.2518   10.0785   26.7698 H       4  LIG4        0.0303
    138 C           2.1089    9.5642   28.4535 C.3     4  LIG4       -0.0495
    139 H           2.4954   10.2479   29.0547 H       4  LIG4        0.0266
    140 H           1.2833    9.9414   28.0598 H       4  LIG4        0.0266
    141 C           1.7450    8.3192   29.2801 C.3     4  LIG4       -0.0529
    142 H           1.2897    7.6694   28.6865 H       4  LIG4        0.0265
    143 H           2.5822    7.8963   29.5971 H       4  LIG4        0.0265
    144 C           0.8487    8.5873   30.4846 C.3     4  LIG4       -0.0531
    145 H           0.5529    7.7150   30.8449 H       4  LIG4        0.0265
    146 H           0.0412    9.0633   30.1648 H       4  LIG4        0.0265
    147 C           1.4521    9.3977   31.6406 C.3     4  LIG4       -0.0531
    148 H           0.7761    9.4640   32.3626 H       4  LIG4        0.0265
    149 H           1.6319   10.3172   31.3171 H       4  LIG4        0.0265
    150 C           2.7650    8.8260   32.2479 C.3     4  LIG4       -0.0531
    151 H           2.7423    8.9292   33.2310 H       4  LIG4        0.0265
    152 H           2.8226    7.8580   32.0450 H       4  LIG4        0.0265
    153 C           4.0035    9.5333   31.6960 C.3     4  LIG4       -0.0530
    154 H           3.9238   10.4984   31.9017 H       4  LIG4        0.0265
    155 H           3.9993    9.4405   30.7100 H       4  LIG4        0.0265
    156 C           5.3634    9.0426   32.2153 C.3     4  LIG4       -0.0527
    157 H           5.4776    8.0878   31.9776 H       4  LIG4        0.0265
    158 H           5.3809    9.1148   33.2029 H       4  LIG4        0.0265
    159 C           6.5413    9.8648   31.6206 C.3     4  LIG4       -0.0479
    160 H           6.2218   10.7887   31.4661 H       4  LIG4        0.0269
    161 H           7.2572    9.9105   32.3036 H       4  LIG4        0.0269
    162 C           7.1632    9.3506   30.3138 C.3     4  LIG4       -0.0134
    163 H           7.6708   10.0903   29.8950 H       4  LIG4        0.0326
    164 H           7.8056    8.6315   30.5330 H       4  LIG4        0.0326
    165 C           7.5737   11.6831   19.6483 C.2     5  LIG5        0.1419
    166 C           8.5650   12.5878   18.9454 C.3     5  LIG5        0.0561
    167 C           9.8341   11.6772   18.7855 C.3     5  LIG5       -0.0383
    168 H           9.5842   10.7872   18.4311 H       5  LIG5        0.0275
    169 H          10.4888   12.0927   18.1725 H       5  LIG5        0.0275
    170 C          10.4246   11.5534   20.2205 C.3     5  LIG5       -0.0484
    171 H          10.4897   10.6060   20.5052 H       5  LIG5        0.0268
    172 H          11.3183   11.9748   20.2804 H       5  LIG5        0.0268
    173 C           9.3838   12.3167   21.0541 C.3     5  LIG5       -0.0282
    174 H           9.6951   12.5804   21.9667 H       5  LIG5        0.0310
    175 C           8.1331   11.4134   21.0395 C.3     5  LIG5        0.0098
    176 H           8.3733   10.4601   21.1544 H       5  LIG5        0.0345
    177 H           7.4893   11.6742   21.7446 H       5  LIG5        0.0345
    178 C           8.9856   13.4866   20.1576 C.3     5  LIG5       -0.0178
    179 C           8.0048   13.3024   17.7147 C.3     5  LIG5        0.1081
    180 H           8.2737   14.2543   17.7622 H       5  LIG5        0.0536
    181 H           7.0174   13.2715   17.7650 H       5  LIG5        0.0536
    182 C           7.8034   14.3073   20.6876 C.3     5  LIG5       -0.0586
    183 H           7.0395   13.7150   20.8481 H       5  LIG5        0.0235
    184 H           7.5565   14.9880   20.0274 H       5  LIG5        0.0235
    185 H           8.0588   14.7449   21.5254 H       5  LIG5        0.0235
    186 C          10.1396   14.4517   19.8223 C.3     5  LIG5       -0.0586
    187 H          10.5343   14.7906   20.6542 H       5  LIG5        0.0235
    188 H           9.7961   15.2017   19.2939 H       5  LIG5        0.0235
    189 H          10.8243   13.9758   19.3079 H       5  LIG5        0.0235
    190 O           6.5024   11.2882   19.2270 O.2     5  LIG5       -0.2967
    191 S           8.5002   12.6648   16.1200 S.3     5  LIG5        0.1110
    192 O           9.9184   12.9694   15.9865 O.2     5  LIG5       -0.1450
    193 O           7.6513   13.3538   15.1577 O.2     5  LIG5       -0.1450
    194 O           8.2402   11.2202   16.1737 O.3     5  LIG5       -0.0476
    195 C          10.1973    4.6664   20.4768 C.2     6  LIG6        0.1419
    196 C           9.2640    5.2927   19.4350 C.3     6  LIG6        0.0561
    197 C           9.2121    6.7779   19.8976 C.3     6  LIG6       -0.0383
    198 H           8.7794    7.3467   19.2124 H       6  LIG6        0.0275
    199 H          10.1217    7.1242   20.0780 H       6  LIG6        0.0275
    200 C           8.3597    6.7367   21.2098 C.3     6  LIG6       -0.0484
    201 H           8.8631    7.1094   21.9779 H       6  LIG6        0.0268
    202 H           7.5126    7.2376   21.1038 H       6  LIG6        0.0268
    203 C           8.0984    5.2337   21.3933 C.3     6  LIG6       -0.0282
    204 H           7.3467    5.0157   22.0172 H       6  LIG6        0.0310
    205 C           9.4610    4.6340   21.7961 C.3     6  LIG6        0.0098
    206 H           9.9161    5.1881   22.4782 H       6  LIG6        0.0345
    207 H           9.3654    3.7087   22.1353 H       6  LIG6        0.0345
    208 C           7.8934    4.7372   19.9341 C.3     6  LIG6       -0.0178
    209 C           9.8222    5.0407   18.0390 C.3     6  LIG6        0.1081
    210 H          10.0088    4.0712   17.9674 H       6  LIG6        0.0536
    211 H          10.6935    5.5063   17.9842 H       6  LIG6        0.0536
    212 C           7.7984    3.2195   19.8026 C.3     6  LIG6       -0.0586
    213 H           7.0037    2.8983   20.2804 H       6  LIG6        0.0235
    214 H           8.5996    2.8069   20.1876 H       6  LIG6        0.0235
    215 H           7.7307    2.9764   18.8555 H       6  LIG6        0.0235
    216 C           6.6326    5.3457   19.2824 C.3     6  LIG6       -0.0586
    217 H           6.5648    5.0407   18.3524 H       6  LIG6        0.0235
    218 H           6.6938    6.3241   19.2995 H       6  LIG6        0.0235
    219 H           5.8378    5.0599   19.7773 H       6  LIG6        0.0235
    220 O          11.3243    4.2539   20.2587 O.2     6  LIG6       -0.2967
    221 S           8.8731    5.5100   16.5815 S.3     6  LIG6        0.1110
    222 O           8.3258    6.8252   16.8271 O.3     6  LIG6       -0.0476
    223 O           7.8740    4.4756   16.3786 O.2     6  LIG6       -0.1450
    224 O           9.8806    5.5227   15.5014 O.2     6  LIG6       -0.1450
    225 C          13.1966    6.4641   22.2067 C.2     7  LIG7        0.1419
    226 C          14.3836    5.9719   23.0400 C.3     7  LIG7        0.0561
    227 C          15.2128    7.2995   23.2075 C.3     7  LIG7       -0.0383
    228 H          14.6275    8.0495   23.4843 H       7  LIG7        0.0275
    229 H          15.9308    7.1861   23.8806 H       7  LIG7        0.0275
    230 C          15.8101    7.5544   21.7972 C.3     7  LIG7       -0.0484
    231 H          15.5312    8.4356   21.4439 H       7  LIG7        0.0268
    232 H          16.7975    7.5088   21.8149 H       7  LIG7        0.0268
    233 C          15.2107    6.3992   20.9549 C.3     7  LIG7       -0.0282
    234 H          15.6892    6.2180   20.0949 H       7  LIG7        0.0310
    235 C          13.7208    6.7042   20.8017 C.3     7  LIG7        0.0098
    236 H          13.5730    7.6414   20.5165 H       7  LIG7        0.0345
    237 H          13.2944    6.0957   20.1483 H       7  LIG7        0.0345
    238 C          15.2095    5.2013   21.9706 C.3     7  LIG7       -0.0178
    239 C          13.9480    5.1954   24.2861 C.3     7  LIG7        0.1081
    240 H          14.1966    4.2465   24.1504 H       7  LIG7        0.0536
    241 H          12.9601    5.2323   24.3331 H       7  LIG7        0.0536
    242 O          12.0637    6.6670   22.5962 O.2     7  LIG7       -0.2967
    243 S          14.5821    5.6965   25.8777 S.3     7  LIG7        0.1110
    244 O          16.0334    5.4886   25.8482 O.2     7  LIG7       -0.1450
    245 O          13.8799    4.8934   26.8583 O.3     7  LIG7       -0.0476
    246 O          14.2281    7.1211   25.9884 O.2     7  LIG7       -0.1450
    247 C          14.5107    3.9577   21.4352 C.3     7  LIG7       -0.0586
    248 H          14.9880    3.6291   20.6457 H       7  LIG7        0.0235
    249 H          13.5879    4.1817   21.1910 H       7  LIG7        0.0235
    250 H          14.5061    3.2637   22.1269 H       7  LIG7        0.0235
    251 C          16.6124    4.7976   22.4596 C.3     7  LIG7       -0.0586
    252 H          16.5293    4.2053   23.2342 H       7  LIG7        0.0235
    253 H          17.1129    5.6006   22.7142 H       7  LIG7        0.0235
    254 H          17.0872    4.3305   21.7418 H       7  LIG7        0.0235
    255 C          14.2327    0.4612   23.1268 C.2     8  LIG8        0.1419
    256 C          15.1014   -0.9548   23.0920 C.3     8  LIG8        0.0561
    257 C          16.1404   -0.5643   22.0172 C.3     8  LIG8       -0.0383
    258 H          16.8504   -1.2495   21.9442 H       8  LIG8        0.0275
    259 H          16.5557    0.3094   22.2280 H       8  LIG8        0.0275
    260 C          15.3128   -0.4818   20.7109 C.3     8  LIG8       -0.0484
    261 H          15.3443    0.4302   20.3282 H       8  LIG8        0.0268
    262 H          15.6485   -1.1243   20.0387 H       8  LIG8        0.0268
    263 C          13.9176   -0.8384   21.1421 C.3     8  LIG8       -0.0282
    264 H          13.3134   -1.1626   20.4153 H       8  LIG8        0.0310
    265 C          13.4208    0.4789   21.9141 C.3     8  LIG8        0.0098
    266 H          13.5923    1.2937   21.3793 H       8  LIG8        0.0345
    267 H          12.4570    0.4273   22.1269 H       8  LIG8        0.0345
    268 C          14.0357   -1.7549   22.3494 C.3     8  LIG8       -0.0178
    269 C          15.7805   -1.3055   24.4073 C.3     8  LIG8        0.1081
    270 H          16.2211   -0.4833   24.7378 H       8  LIG8        0.0536
    271 H          16.4992   -1.9553   24.2038 H       8  LIG8        0.0536
    272 C          12.7144   -1.9789   23.0636 C.3     8  LIG8       -0.0586
    273 H          12.8388   -2.6360   23.7822 H       8  LIG8        0.0235
    274 H          12.0518   -2.3148   22.4248 H       8  LIG8        0.0235
    275 H          12.4022   -1.1331   23.4450 H       8  LIG8        0.0235
    276 C          14.7168   -3.0869   21.9301 C.3     8  LIG8       -0.0586
    277 H          14.4843   -3.7897   22.5709 H       8  LIG8        0.0235
    278 H          15.6902   -2.9676   21.9161 H       8  LIG8        0.0235
    279 H          14.4061   -3.3462   21.0364 H       8  LIG8        0.0235
    280 O          14.4445    1.3394   23.9745 O.2     8  LIG8       -0.2967
    281 S          14.8340   -1.9772   25.7580 S.3     8  LIG8        0.1110
    282 O          14.4083   -3.3072   25.3609 O.2     8  LIG8       -0.1450
    283 O          15.8234   -2.0351   26.8653 O.3     8  LIG8       -0.0476
    284 O          13.7493   -1.0581   26.0284 O.2     8  LIG8       -0.1450
@<TRIPOS>BOND
     1    28    27    1
     2    26    24    1
     3    11     8    1
     4    20    18    1
     5    29    27    1
     6    19    18    1
     7    27    24    1
     8    27    30    1
     9    37    36    1
    10     9     8    1
    11    24    25    1
    12    24    21    1
    13    10     8    1
    14     8     1    1
    15    35    33    1
    16    18    21    1
    17    18    15    1
    18    38    36    1
    19    36    33    1
    20    36    39    1
    21    14    12    1
    22    17    15    1
    23    21    22    1
    24    21    23    1
    25    33    30    1
    26    33    34    1
    27    30    31    1
    28    30    32    1
    29    15    12    1
    30    15    16    1
    31     1     2    1
    32     1     7    1
    33    40    39    1
    34    12     2    1
    35    12    13    1
    36    39     7    1
    37    39    41    1
    38    54    53    1
    39     2     3    1
    40    55    53    1
    41     7     5    2
    42    53    43    1
    43    53    56    1
    44    45    44    1
    45    43    44    1
    46    43    42    1
    47    50    49    1
    48     3     5    1
    49     3     4    1
    50    44    46    1
    51    58    56    1
    52     5     6    1
    53    56    57    1
    54    56    59    1
    55    42    49    1
    56    42    48    1
    57    60    59    1
    58    49    51    1
    59    49    52    1
    60    46    47    1
    61    46    48    2
    62   193   191    2
    63    48    80    1
    64    59    61    1
    65    59    62    1
    66   224   221    2
    67    81    80    1
    68   192   191    2
    69   191   194    1
    70   191   179    1
    71    64    62    1
    72    80    82    1
    73    80    77    1
    74   223   221    2
    75    62    63    1
    76    62    65    1
    77   221   222    1
    78   221   209    1
    79    72    71    1
    80    66    65    1
    81    78    77    1
    82    77    74    1
    83    77    79    1
    84    65    68    1
    85    65    67    1
    86    71    73    1
    87    71    74    1
    88    71    68    1
    89   179   180    1
    90   179   181    1
    91   179   166    1
    92    75    74    1
    93   210   209    1
    94   211   209    1
    95    69    68    1
    96   209   196    1
    97    74    76    1
    98   169   167    1
    99    68    70    1
   100   217   216    1
   101   168   167    1
   102   167   166    1
   103   167   170    1
   104   215   212    1
   105   166   165    1
   106   166   178    1
   107   198   197    1
   108   190   165    2
   109   216   218    1
   110   216   219    1
   111   216   208    1
   112   188   186    1
   113   189   186    1
   114   196   197    1
   115   196   208    1
   116   196   195    1
   117   165   175    1
   118   212   208    1
   119   212   214    1
   120   212   213    1
   121   186   178    1
   122   186   187    1
   123   197   199    1
   124   197   200    1
   125   208   203    1
   126   184   182    1
   127   262   260    1
   128   234   233    1
   129   237   235    1
   130   178   182    1
   131   178   173    1
   132   170   172    1
   133   170   171    1
   134   170   173    1
   135   220   195    2
   136   261   260    1
   137   264   263    1
   138   195   205    1
   139   236   235    1
   140   248   247    1
   141   182   183    1
   142   182   185    1
   143   260   263    1
   144   260   257    1
   145   235   233    1
   146   235   225    1
   147   233   230    1
   148   233   238    1
   149   279   276    1
   150   175   173    1
   151   175   176    1
   152   175   177    1
   153   173   174    1
   154   202   200    1
   155   263   265    1
   156   263   268    1
   157   249   247    1
   158   200   203    1
   159   200   201    1
   160   266   265    1
   161   203   205    1
   162   203   204    1
   163   247   238    1
   164   247   250    1
   165   231   230    1
   166   254   251    1
   167   205   207    1
   168   205   206    1
   169   230   232    1
   170   230   227    1
   171   265   267    1
   172   265   255    1
   173   278   276    1
   174   276   268    1
   175   276   277    1
   176   258   257    1
   177   238   251    1
   178   238   226    1
   179   257   259    1
   180   257   256    1
   181   225   242    2
   182   225   226    1
   183   268   272    1
   184   268   256    1
   185   274   272    1
   186   251   253    1
   187   251   252    1
   188   226   227    1
   189   226   239    1
   190   272   275    1
   191   272   273    1
   192   256   255    1
   193   256   269    1
   194   255   280    2
   195   227   228    1
   196   227   229    1
   197   110   109    1
   198   108   106    1
   199    93    90    1
   200   240   239    1
   201   271   269    1
   202   239   241    1
   203   239   243    1
   204   111   109    1
   205   269   270    1
   206   269   281    1
   207   101   100    1
   208   120   118    1
   209   102   100    1
   210   109   106    1
   211   109   112    1
   212    91    90    1
   213   117   115    1
   214    92    90    1
   215    90    83    1
   216   119   118    1
   217   106   107    1
   218   106   103    1
   219   100   103    1
   220   100    97    1
   221   118   115    1
   222   118   121    1
   223   282   281    2
   224   115   112    1
   225   115   116    1
   226    96    94    1
   227    99    97    1
   228   112   113    1
   229   112   114    1
   230   281   284    2
   231   281   283    1
   232   103   104    1
   233   103   105    1
   234   244   243    2
   235   243   246    2
   236   243   245    1
   237    97    94    1
   238    97    98    1
   239    83    84    1
   240    83    89    1
   241   122   121    1
   242    94    84    1
   243    94    95    1
   244   121    89    1
   245   121   123    1
   246   136   135    1
   247   137   135    1
   248    84    85    1
   249    89    87    2
   250   135   125    1
   251   135   138    1
   252   127   126    1
   253   132   131    1
   254   125   126    1
   255   125   124    1
   256    85    87    1
   257    85    86    1
   258    87    88    1
   259   140   138    1
   260   126   128    1
   261   138   139    1
   262   138   141    1
   263   124   131    1
   264   124   130    1
   265   131   133    1
   266   131   134    1
   267   142   141    1
   268   128   129    1
   269   128   130    2
   270   141   143    1
   271   141   144    1
   272   130   162    1
   273   163   162    1
   274   146   144    1
   275   162   164    1
   276   162   159    1
   277   144   145    1
   278   144   147    1
   279   155   153    1
   280   149   147    1
   281   160   159    1
   282   159   156    1
   283   159   161    1
   284   147   150    1
   285   147   148    1
   286   153   154    1
   287   153   156    1
   288   153   150    1
   289   157   156    1
   290   152   150    1
   291   156   158    1
   292   150   151    1
