@<TRIPOS>MOLECULE
C30 H36 N3 O8, C30 H34 N2 O8, F6 P, H2 O
 161 165 0 0 0
SMALL
GASTEIGER

@<TRIPOS>ATOM
      1 P           4.3739    1.5619    6.0926 P.3     1  LIG1        0.6235
      2 F           5.7867    2.2569    6.3324 F       1  LIG1       -0.1039
      3 F           3.7520    2.4220    7.3030 F       1  LIG1       -0.1039
      4 F           4.9953    0.7399    4.8774 F       1  LIG1       -0.1039
      5 F           3.9947    2.7422    5.0814 F       1  LIG1       -0.1039
      6 F           2.9559    0.9046    5.8458 F       1  LIG1       -0.1039
      7 F           4.7474    0.3924    7.0990 F       1  LIG1       -0.1039
      8 O           7.9113    9.3884    5.7006 O.2     2  LIG2       -0.2702
      9 C           8.2206    9.8351    4.5890 C.2     2  LIG2        0.2442
     10 N           7.6830   10.9469    4.0781 N.am    2  LIG2       -0.3081
     11 C           6.7869   11.8036    4.8360 C.3     2  LIG2        0.0461
     12 C           5.4213   11.9127    4.1963 C.3     2  LIG2        0.1050
     13 O           4.7056   10.6768    4.2024 O.3     2  LIG2       -0.4904
     14 C           4.1326   10.2640    5.3820 C.ar    2  LIG2        0.1208
     15 C           4.0799   10.9948    6.5548 C.ar    2  LIG2       -0.0165
     16 C           3.4212   10.4841    7.6741 C.ar    2  LIG2       -0.0165
     17 C           2.7993    9.2520    7.6095 C.ar    2  LIG2        0.1208
     18 O           2.1223    8.6482    8.6515 O.3     2  LIG2       -0.4897
     19 C           2.0182    9.4032    9.8635 C.3     2  LIG2        0.1128
     20 C           1.2878    8.5707   10.8768 C.3     2  LIG2        0.0818
     21 O           2.1555    7.5645   11.3730 O.3     2  LIG2       -0.3742
     22 C           1.5092    6.7380   12.3324 C.3     2  LIG2        0.0711
     23 C           2.5190    5.8266   12.9577 C.3     2  LIG2        0.0711
     24 O           2.9912    4.9385   11.9530 O.3     2  LIG2       -0.3742
     25 C           3.9402    4.0012   12.4497 C.3     2  LIG2        0.0818
     26 C           4.8351    3.5841   11.3115 C.3     2  LIG2        0.1128
     27 O           5.6711    4.7072   11.0274 O.3     2  LIG2       -0.4897
     28 C           6.6937    4.5219   10.1263 C.ar    2  LIG2        0.1208
     29 C           6.7802    3.4625    9.2439 C.ar    2  LIG2       -0.0165
     30 C           7.8373    3.3923    8.3381 C.ar    2  LIG2       -0.0165
     31 C           8.7983    4.3851    8.3081 C.ar    2  LIG2        0.1208
     32 O           9.8703    4.4073    7.4462 O.3     2  LIG2       -0.4904
     33 C           9.8791    3.4402    6.3959 C.3     2  LIG2        0.1050
     34 C          10.9000    3.8919    5.3822 C.3     2  LIG2        0.0461
     35 N          10.4707    5.1332    4.7468 N.am    2  LIG2       -0.3081
     36 C          11.3296    5.9573    4.1495 C.2     2  LIG2        0.2442
     37 O          12.5337    5.6930    4.0333 O.2     2  LIG2       -0.2702
     38 C          10.7710    7.2360    3.6066 C.ar    2  LIG2        0.0374
     39 C           9.7222    7.9019    4.2377 C.ar    2  LIG2       -0.0375
     40 C           9.2703    9.1354    3.7680 C.ar    2  LIG2        0.0374
     41 C           9.8602    9.6798    2.6310 C.ar    2  LIG2       -0.0496
     42 C          10.9053    9.0130    2.0014 C.ar    2  LIG2       -0.0603
     43 C          11.3812    7.8119    2.4907 C.ar    2  LIG2       -0.0496
     44 C           8.7137    5.4509    9.2025 C.ar    2  LIG2       -0.0165
     45 C           7.6734    5.5144   10.1074 C.ar    2  LIG2       -0.0165
     46 C           2.8577    8.5113    6.4301 C.ar    2  LIG2       -0.0165
     47 C           3.5284    9.0146    5.3360 C.ar    2  LIG2       -0.0165
     48 O           7.6740    5.4724    5.2268 O.2     3  LIG3       -0.2705
     49 C           6.4458    5.5766    5.2870 C.2     3  LIG3        0.2420
     50 N           5.6188    5.2109    4.3176 N.am    3  LIG3       -0.3083
     51 C           6.1193    4.6266    3.0827 C.3     3  LIG3        0.0461
     52 C           6.7904    5.6585    2.1971 C.3     3  LIG3        0.1050
     53 O           5.8938    6.7399    2.0631 O.3     3  LIG3       -0.4904
     54 C           6.2985    7.8325    1.3437 C.ar    3  LIG3        0.1208
     55 C           5.5074    8.9551    1.4640 C.ar    3  LIG3       -0.0165
     56 C           5.7986   10.0925    0.7473 C.ar    3  LIG3       -0.0165
     57 C           6.9030   10.1128   -0.1040 C.ar    3  LIG3        0.1208
     58 O           7.0930   11.2997   -0.7705 O.3     3  LIG3       -0.4897
     59 C           8.0898   11.3362   -1.7932 C.3     3  LIG3        0.1128
     60 C           8.1473   12.7553   -2.2653 C.3     3  LIG3        0.0818
     61 O           8.7460   13.5181   -1.2177 O.3     3  LIG3       -0.3742
     62 C           8.6353   14.9072   -1.4442 C.3     3  LIG3        0.0711
     63 C           9.5830   15.6322   -0.5431 C.3     3  LIG3        0.0711
     64 O           9.2188   15.4010    0.8139 O.3     3  LIG3       -0.3742
     65 C           9.9770   16.2020    1.7024 C.3     3  LIG3        0.0818
     66 C           9.7078   15.7560    3.1074 C.3     3  LIG3        0.1128
     67 O          10.4083   14.5246    3.3085 O.3     3  LIG3       -0.4897
     68 C          10.1869   13.8753    4.5095 C.ar    3  LIG3        0.1208
     69 C           9.4388   14.3966    5.5486 C.ar    3  LIG3       -0.0165
     70 C           9.2057   13.6221    6.6901 C.ar    3  LIG3       -0.0165
     71 C           9.7151   12.3416    6.7717 C.ar    3  LIG3        0.1208
     72 O           9.4464   11.4661    7.8056 O.3     3  LIG3       -0.4904
     73 C           8.3818   11.8340    8.6808 C.3     3  LIG3        0.1050
     74 C           7.9960   10.6111    9.4652 C.3     3  LIG3        0.0461
     75 N           7.3315    9.6000    8.6387 N.am    3  LIG3       -0.3083
     76 C           6.4592    8.7677    9.2131 C.2     3  LIG3        0.2420
     77 O           6.1353    8.8383   10.3990 O.2     3  LIG3       -0.2705
     78 C           5.8654    7.6721    8.3683 C.2     3  LIG3        0.0367
     79 C           6.4221    7.2013    7.1880 C.3     3  LIG3        0.0326
     80 C           5.8130    6.1326    6.5285 C.2     3  LIG3        0.0367
     81 C           4.6832    5.5629    7.0632 C.2     3  LIG3        0.0046
     82 N           4.1689    6.0270    8.2246 N.pl3   3  LIG3       -0.3147
     83 C           4.7432    7.0460    8.8827 C.2     3  LIG3        0.0046
     84 C           2.9283    5.4152    8.7495 C.3     3  LIG3        0.0047
     85 C          10.5207   11.8403    5.7497 C.ar    3  LIG3       -0.0165
     86 C          10.7594   12.6067    4.6308 C.ar    3  LIG3       -0.0165
     87 C           7.7085    9.0047   -0.2164 C.ar    3  LIG3       -0.0165
     88 C           7.4106    7.8559    0.5158 C.ar    3  LIG3       -0.0165
     89 O           8.2630   12.6242    1.6948 O.3     4  HOH4       -0.4105
     90 H           7.1586   12.7026    4.9265 H       2  LIG2        0.0495
     91 H           6.7064   11.4367    5.7596 H       2  LIG2        0.0495
     92 H           4.9053   12.6032    4.6203 H       2  LIG2        0.0712
     93 H           5.5244   12.1507    3.2535 H       2  LIG2        0.0712
     94 H           4.4904   11.8256    6.6332 H       2  LIG2        0.0655
     95 H           3.3748   10.9887    8.4592 H       2  LIG2        0.0655
     96 H           2.9305    9.6052   10.1975 H       2  LIG2        0.0720
     97 H           1.5423   10.2512    9.6931 H       2  LIG2        0.0720
     98 H           1.0019    9.1563   11.5867 H       2  LIG2        0.0594
     99 H           0.4902    8.1648   10.4676 H       2  LIG2        0.0594
    100 H           1.1131    7.3026   13.0209 H       2  LIG2        0.0583
    101 H           0.7957    6.2113   11.9064 H       2  LIG2        0.0583
    102 H           3.2709    6.3385   13.2799 H       2  LIG2        0.0583
    103 H           2.1285    5.3123   13.6964 H       2  LIG2        0.0583
    104 H           4.4848    4.4123   13.1493 H       2  LIG2        0.0594
    105 H           3.4895    3.2047   12.7778 H       2  LIG2        0.0594
    106 H           5.3744    2.8036   11.6002 H       2  LIG2        0.0720
    107 H           4.3096    3.3857   10.5262 H       2  LIG2        0.0720
    108 H           6.1356    2.8090    9.2653 H       2  LIG2        0.0655
    109 H           7.8784    2.7168    7.7230 H       2  LIG2        0.0655
    110 H          10.1549    2.5651    6.7300 H       2  LIG2        0.0712
    111 H           8.9934    3.3656    5.9870 H       2  LIG2        0.0712
    112 H          11.7590    4.0443    5.8159 H       2  LIG2        0.0495
    113 H          11.0170    3.1817    4.6946 H       2  LIG2        0.0495
    114 H           9.3128    7.5401    5.0301 H       2  LIG2        0.0633
    115 H           9.6002   10.5036    2.2854 H       2  LIG2        0.0625
    116 H          11.3051    9.3906    1.2339 H       2  LIG2        0.0618
    117 H          12.0844    7.3613    2.0580 H       2  LIG2        0.0625
    118 H           9.3549    6.1361    9.1752 H       2  LIG2        0.0655
    119 H           7.5899    6.2199   10.7018 H       2  LIG2        0.0655
    120 H           2.4348    7.6706    6.3675 H       2  LIG2        0.0655
    121 H           3.5495    8.4984    4.5662 H       2  LIG2        0.0655
    122 H           6.7406    3.9036    3.3211 H       3  LIG3        0.0495
    123 H           5.3482    4.2199    2.6186 H       3  LIG3        0.0495
    124 H           7.6008    6.0701    2.5533 H       3  LIG3        0.0712
    125 H           6.9942    5.2389    1.3307 H       3  LIG3        0.0712
    126 H           4.7402    8.9652    2.0670 H       3  LIG3        0.0655
    127 H           5.2790   10.8922    0.8241 H       3  LIG3        0.0655
    128 H           8.9798   11.0581   -1.4365 H       3  LIG3        0.0720
    129 H           7.8344   10.7450   -2.5128 H       3  LIG3        0.0720
    130 H           8.7028   12.8205   -3.0757 H       3  LIG3        0.0594
    131 H           7.2608   13.1074   -2.4430 H       3  LIG3        0.0594
    132 H           8.8571   15.1497   -2.4002 H       3  LIG3        0.0583
    133 H           7.6880   15.1596   -1.2226 H       3  LIG3        0.0583
    134 H           9.4932   16.6024   -0.7205 H       3  LIG3        0.0583
    135 H          10.4900   15.3419   -0.6732 H       3  LIG3        0.0583
    136 H           9.6967   17.1374    1.6144 H       3  LIG3        0.0594
    137 H          10.9309   16.1228    1.5153 H       3  LIG3        0.0594
    138 H          10.0507   16.4370    3.7196 H       3  LIG3        0.0720
    139 H           8.7404   15.6152    3.2693 H       3  LIG3        0.0720
    140 H           9.0496   15.2529    5.4916 H       3  LIG3        0.0655
    141 H           8.6579   14.0081    7.3672 H       3  LIG3        0.0655
    142 H           8.6730   12.5135    9.3036 H       3  LIG3        0.0712
    143 H           7.6310   12.1149    8.1733 H       3  LIG3        0.0712
    144 H           8.8198   10.2306    9.8732 H       3  LIG3        0.0495
    145 H           7.4014   10.8854   10.1817 H       3  LIG3        0.0495
    146 H           7.2234    7.5906    6.8021 H       3  LIG3        0.0410
    147 H           4.2370    4.8656    6.6625 H       3  LIG3        0.0788
    148 H           4.3575    7.3060    9.6728 H       3  LIG3        0.0788
    149 H           2.9010    5.5093    9.6931 H       3  LIG3        0.0431
    150 H           2.9378    4.4764    8.5088 H       3  LIG3        0.0431
    151 H           2.1687    5.8369    8.3129 H       3  LIG3        0.0431
    152 H          10.8707   10.9570    5.8226 H       3  LIG3        0.0655
    153 H          11.2942   12.2712    3.9245 H       3  LIG3        0.0655
    154 H           8.4530    9.0125   -0.7926 H       3  LIG3        0.0655
    155 H           8.0476    7.1131    0.4526 H       3  LIG3        0.0655
    156 H           7.4799    9.5722    7.7928 H       3  LIG3        0.1491
    157 H           7.8987   11.1955    3.3098 H       2  LIG2        0.1491
    158 H           9.6260    5.3507    4.7914 H       2  LIG2        0.1491
    159 H           8.7756   13.2884    1.7585 H       0  HOH0        0.2052
    160 H           8.0385   12.6845    0.9164 H       0  HOH0        0.2052
    161 H           4.7419    5.4028    4.3433 H       3  LIG3        0.1491
@<TRIPOS>BOND
     1   130    60    1
     2   129    59    1
     3   131    60    1
     4   132    62    1
     5    60    59    1
     6    60    61    1
     7    59   128    1
     8    59    58    1
     9    62   133    1
    10    62    61    1
    11    62    63    1
    12   154    87    1
    13    58    57    1
    14   134    63    1
    15   135    63    1
    16    63    64    1
    17    87    57   ar
    18    87    88   ar
    19    57    56   ar
    20   155    88    1
    21    88    54   ar
    22    56   127    1
    23    56    55   ar
    24    64    65    1
    25   160    89    1
    26   116    42    1
    27   125    52    1
    28    54    55   ar
    29    54    53    1
    30    55   126    1
    31   137    65    1
    32   136    65    1
    33    89   159    1
    34    65    66    1
    35    42    43   ar
    36    42    41   ar
    37   117    43    1
    38    53    52    1
    39    52   124    1
    40    52    51    1
    41   115    41    1
    42    43    38   ar
    43   123    51    1
    44    41    40   ar
    45    51   122    1
    46    51    50    1
    47    66   139    1
    48    66    67    1
    49    66   138    1
    50    93    12    1
    51    67    68    1
    52   157    10    1
    53    38    36    1
    54    38    39   ar
    55    40    39   ar
    56    40     9    1
    57   153    86    1
    58    37    36    2
    59    10     9   am
    60    10    11    1
    61    36    35   am
    62    12    13    1
    63    12    92    1
    64    12    11    1
    65    13    14    1
    66    39   114    1
    67    50   161    1
    68    50    49   am
    69    68    86   ar
    70    68    69   ar
    71   121    47    1
    72     9     8    2
    73    86    85   ar
    74   113    34    1
    75    35   158    1
    76    35    34    1
    77    11    90    1
    78    11    91    1
    79     4     1    1
    80     5     1    1
    81    48    49    2
    82    49    80    1
    83    47    14   ar
    84    47    46   ar
    85    14    15   ar
    86    34   112    1
    87    34    33    1
    88   140    69    1
    89    69    70   ar
    90    85   152    1
    91    85    71   ar
    92     6     1    1
    93   111    33    1
    94     1     2    1
    95     1     7    1
    96     1     3    1
    97   120    46    1
    98    33   110    1
    99    33    32    1
   100    46    17   ar
   101    80    81    2
   102    80    79    1
   103    15    94    1
   104    15    16   ar
   105   147    81    1
   106    70    71   ar
   107    70   141    1
   108    71    72    1
   109   146    79    1
   110    81    82    1
   111    79    78    1
   112    32    31    1
   113    17    16   ar
   114    17    18    1
   115    16    95    1
   116   109    30    1
   117   156    75    1
   118    72    73    1
   119   143    73    1
   120    82    84    1
   121    82    83    1
   122    31    30   ar
   123    31    44   ar
   124   151    84    1
   125    30    29   ar
   126    78    83    2
   127    78    76    1
   128   150    84    1
   129    75    76   am
   130    75    74    1
   131    18    19    1
   132    73   142    1
   133    73    74    1
   134    84   149    1
   135    83   148    1
   136   118    44    1
   137    44    45   ar
   138    76    77    2
   139    29   108    1
   140    29    28   ar
   141    74   144    1
   142    74   145    1
   143    97    19    1
   144    19    96    1
   145    19    20    1
   146    45    28   ar
   147    45   119    1
   148    28    27    1
   149    99    20    1
   150   107    26    1
   151    20    21    1
   152    20    98    1
   153    27    26    1
   154    26   106    1
   155    26    25    1
   156    21    22    1
   157   101    22    1
   158    24    25    1
   159    24    23    1
   160    22    23    1
   161    22   100    1
   162    25   105    1
   163    25   104    1
   164    23   102    1
   165    23   103    1
