@<TRIPOS>MOLECULE
?
 27 27 0 0 0
SMALL
GASTEIGER

@<TRIPOS>ATOM
      1 C           2.2399    5.0372   23.0490 C.3     1  LIG1        0.0733
      2 H           1.8259    5.3208   23.8800 H       1  LIG1        0.0584
      3 H           2.8300    5.7465   22.7478 H       1  LIG1        0.0584
      4 C           3.0402    3.7857   23.2888 C.3     1  LIG1        0.1120
      5 H           3.6459    3.9428   24.0426 H       1  LIG1        0.0650
      6 C           2.1863    2.5787   23.6028 C.3     1  LIG1        0.1175
      7 H           1.6415    2.3426   22.8362 H       1  LIG1        0.0723
      8 H           2.7461    1.8195   23.8287 H       1  LIG1        0.0723
      9 C           0.5706    1.9478   25.2445 C.ar    1  LIG1        0.1206
     10 C          -0.1653    2.3073   26.3576 C.ar    1  LIG1       -0.0197
     11 H          -0.1010    3.1709   26.6979 H       1  LIG1        0.0654
     12 C          -0.9934    1.3917   26.9648 C.ar    1  LIG1       -0.0554
     13 H          -1.4869    1.6514   27.7103 H       1  LIG1        0.0621
     14 C          -1.1119    0.0909   26.4965 C.ar    1  LIG1       -0.0502
     15 C          -0.3750   -0.2388   25.3839 C.ar    1  LIG1       -0.0554
     16 H          -0.4350   -1.1046   25.0494 H       1  LIG1        0.0621
     17 C           0.4560    0.6688   24.7388 C.ar    1  LIG1       -0.0197
     18 H           0.9281    0.4185   23.9770 H       1  LIG1        0.0654
     19 C          -2.0107   -0.9047   27.1813 C.3     1  LIG1       -0.0397
     20 H          -2.0785   -1.6976   26.6437 H       1  LIG1        0.0278
     21 H          -2.8832   -0.5209   27.2968 H       1  LIG1        0.0278
     22 H          -1.6435   -1.1298   28.0383 H       1  LIG1        0.0278
     23 O           1.2377    4.8100   22.0724 O.3     1  LIG1       -0.3923
     24 O           3.8166    3.4314   22.1517 O.3     1  LIG1       -0.3861
     25 O           1.3592    2.9318   24.7069 O.3     1  LIG1       -0.4893
     26 H           1.1412    5.4904   21.5984 H       1  LIG1        0.2095
     27 H           4.5696    3.9248   22.1346 H       1  LIG1        0.2100
@<TRIPOS>BOND
     1    26    23    1
     2    23     1    1
     3    27    24    1
     4    24     4    1
     5     3     1    1
     6     7     6    1
     7     1     4    1
     8     1     2    1
     9     4     6    1
    10     4     5    1
    11     6     8    1
    12     6    25    1
    13    18    17    1
    14    25     9    1
    15    17     9   ar
    16    17    15   ar
    17    16    15    1
    18     9    10   ar
    19    15    14   ar
    20    10    11    1
    21    10    12   ar
    22    14    12   ar
    23    14    19    1
    24    20    19    1
    25    12    13    1
    26    19    21    1
    27    19    22    1
