@<TRIPOS>MOLECULE
?
 64 65 0 0 0
SMALL
GASTEIGER

@<TRIPOS>ATOM
      1 C           3.8487    0.0985    4.3737 C.ar    1  LIG1        0.0000
      2 C           5.1184   -0.3965    4.0086 C.ar    1  LIG1        0.0000
      3 C           5.4227   -0.5231    2.6540 C.ar    1  LIG1        0.0000
      4 C           4.4952   -0.1938    1.6760 C.ar    1  LIG1        0.0000
      5 C           3.2392    0.2463    2.0464 C.ar    1  LIG1        0.0000
      6 C           2.8816    0.3944    3.3888 C.ar    1  LIG1        0.0000
      7 C           6.1458   -0.7594    5.0715 C.3     1  LIG1        0.0000
      8 C           6.9697    0.4716    5.4675 C.3     1  LIG1        0.0000
      9 C           7.0639   -1.9138    4.6630 C.3     1  LIG1        0.0000
     10 C           1.4559    0.7969    3.7441 C.3     1  LIG1        0.0000
     11 C           0.5125   -0.3785    3.5215 C.3     1  LIG1        0.0000
     12 C           0.9854    2.0203    2.9394 C.3     1  LIG1        0.0000
     13 C           3.0801    0.5322    8.7007 C.ar    1  LIG1        0.0000
     14 C           4.1599    0.5398    9.5984 C.ar    1  LIG1        0.0000
     15 C           4.2944   -0.5349   10.4869 C.ar    1  LIG1        0.0000
     16 C           3.4151   -1.5957   10.4644 C.ar    1  LIG1        0.0000
     17 C           2.3477   -1.5931    9.5788 C.ar    1  LIG1        0.0000
     18 C           2.1478   -0.5228    8.6994 C.ar    1  LIG1        0.0000
     19 C           5.1404    1.6934    9.6513 C.3     1  LIG1        0.0000
     20 C           4.8581    2.5741   10.8630 C.3     1  LIG1        0.0000
     21 C           6.5922    1.2303    9.6340 C.3     1  LIG1        0.0000
     22 C           0.8884   -0.4556    7.8478 C.3     1  LIG1        0.0000
     23 C          -0.1903    0.3055    8.6280 C.3     1  LIG1        0.0000
     24 C           0.3773   -1.8213    7.4004 C.3     1  LIG1        0.0000
     25 B           3.2056    1.5127    6.3712 B       1  LIG1        0.0000
     26 N           3.5428    0.2836    5.7561 N.pl3   1  LIG1        0.0000
     27 N           2.9341    1.6063    7.7558 N.pl3   1  LIG1        0.0000
     28 H           6.3191   -0.8477    2.3720 H       1  LIG1        0.0000
     29 H           4.6888   -0.2888    0.6908 H       1  LIG1        0.0000
     30 H           2.5273    0.4538    1.3652 H       1  LIG1        0.0000
     31 H           5.6378   -1.1045    5.8870 H       1  LIG1        0.0000
     32 H           6.4097    1.1963    5.8074 H       1  LIG1        0.0000
     33 H           7.6497    0.1959    6.1234 H       1  LIG1        0.0000
     34 H           7.4989    0.8456    4.6416 H       1  LIG1        0.0000
     35 H           7.6690   -2.1966    5.4043 H       1  LIG1        0.0000
     36 H           6.5466   -2.6710    4.3801 H       1  LIG1        0.0000
     37 H           7.6452   -1.6604    3.8789 H       1  LIG1        0.0000
     38 H           1.4214    1.0210    4.7026 H       1  LIG1        0.0000
     39 H           0.7831   -0.9385    4.1622 H       1  LIG1        0.0000
     40 H           0.5114   -0.6910    2.4951 H       1  LIG1        0.0000
     41 H          -0.4030   -0.0825    3.8680 H       1  LIG1        0.0000
     42 H           0.0774    2.2709    3.2938 H       1  LIG1        0.0000
     43 H           0.9337    1.8151    1.9721 H       1  LIG1        0.0000
     44 H           1.6627    2.8670    3.0726 H       1  LIG1        0.0000
     45 H           5.0479   -0.5569   11.1790 H       1  LIG1        0.0000
     46 H           3.5465   -2.3534   11.0984 H       1  LIG1        0.0000
     47 H           1.7170   -2.3513    9.6046 H       1  LIG1        0.0000
     48 H           5.0165    2.2688    8.9236 H       1  LIG1        0.0000
     49 H           3.8683    2.8979   10.8957 H       1  LIG1        0.0000
     50 H           5.4621    3.3310   10.8304 H       1  LIG1        0.0000
     51 H           5.0135    2.0626   11.7020 H       1  LIG1        0.0000
     52 H           1.0804    0.1134    7.0332 H       1  LIG1        0.0000
     53 H           6.8338    0.7941   10.5471 H       1  LIG1        0.0000
     54 H           7.1940    2.0007    9.5447 H       1  LIG1        0.0000
     55 H           6.8385    0.6497    8.8473 H       1  LIG1        0.0000
     56 H           0.1254    1.2994    8.9018 H       1  LIG1        0.0000
     57 H          -0.9783    0.3785    8.0334 H       1  LIG1        0.0000
     58 H          -0.3960   -0.2166    9.4466 H       1  LIG1        0.0000
     59 H          -0.3483   -1.7222    6.7771 H       1  LIG1        0.0000
     60 H           1.1234   -2.3307    6.9515 H       1  LIG1        0.0000
     61 H           0.0307   -2.3513    8.2481 H       1  LIG1        0.0000
     62 H           2.7367    2.4338    8.1228 H       1  LIG1        0.0000
     63 H           3.1516    2.4122    5.7551 H       1  LIG1        0.0000
     64 H           3.6525   -0.4094    6.2433 H       1  LIG1        0.0000
@<TRIPOS>BOND
     1    29     4    1
     2    30     5    1
     3     4     5   ar
     4     4     3   ar
     5    43    12    1
     6     5     6   ar
     7    28     3    1
     8    40    11    1
     9     3     2   ar
    10    12    44    1
    11    12    42    1
    12    12    10    1
    13     6    10    1
    14     6     1   ar
    15    11    10    1
    16    11    41    1
    17    11    39    1
    18    10    38    1
    19    37     9    1
    20     2     1   ar
    21     2     7    1
    22     1    26    1
    23    36     9    1
    24    34     8    1
    25     9     7    1
    26     9    35    1
    27     7     8    1
    28     7    31    1
    29     8    32    1
    30     8    33    1
    31    63    25    1
    32    26    64    1
    33    26    25    1
    34    25    27    1
    35    59    24    1
    36    60    24    1
    37    52    22    1
    38    24    22    1
    39    24    61    1
    40    27    62    1
    41    27    13    1
    42    22    23    1
    43    22    18    1
    44    57    23    1
    45    23    56    1
    46    23    58    1
    47    18    13   ar
    48    18    17   ar
    49    13    14   ar
    50    55    21    1
    51    48    19    1
    52    54    21    1
    53    17    47    1
    54    17    16   ar
    55    14    19    1
    56    14    15   ar
    57    21    19    1
    58    21    53    1
    59    19    20    1
    60    16    15   ar
    61    16    46    1
    62    15    45    1
    63    50    20    1
    64    20    49    1
    65    20    51    1
