@<TRIPOS>MOLECULE
?
 40 43 0 0 0
SMALL
GASTEIGER

@<TRIPOS>ATOM
      1 O           3.6236    2.9218   14.5094 O.3     1  LIG1       -0.4947
      2 O           5.4251    1.2165   10.5680 O.3     1  LIG1       -0.4731
      3 O           7.4765    2.1484   12.0692 O.3     1  LIG1       -0.4651
      4 O           3.1040   -2.4308   13.1394 O.2     1  LIG1       -0.2971
      5 O           8.2567    0.0621   12.0934 O.2     1  LIG1       -0.2463
      6 C           3.6211   -0.1088   12.7040 C.3     1  LIG1        0.0202
      7 H           2.9598    0.1741   13.3856 H       1  LIG1        0.0352
      8 H           3.2264    0.0431   11.8091 H       1  LIG1        0.0352
      9 C           4.9128    0.7321   12.8524 C.3     1  LIG1        0.0596
     10 C           3.9331   -1.5772   12.8792 C.2     1  LIG1        0.1375
     11 C           4.8380    2.3353   11.1475 C.ar    1  LIG1        0.1295
     12 C           3.6227    4.3778   12.5236 C.ar    1  LIG1       -0.0194
     13 H           3.2216    5.0999   12.9945 H       1  LIG1        0.0654
     14 C           6.0596   -1.1853   13.9774 C.3     1  LIG1       -0.0424
     15 H           7.0449   -1.2086   13.8855 H       1  LIG1        0.0272
     16 H           5.8137   -1.7120   14.7786 H       1  LIG1        0.0272
     17 C           4.5761    2.1686   12.5042 C.ar    1  LIG1        0.0468
     18 C           3.9355    3.1868   13.1975 C.ar    1  LIG1        0.1274
     19 C           7.3425    0.8258   11.9658 C.2     1  LIG1        0.3521
     20 C           5.8845    0.3955   11.6783 C.3     1  LIG1        0.2166
     21 C           3.9021    4.4994   11.1645 C.ar    1  LIG1       -0.0548
     22 H           3.6665    5.3033   10.7165 H       1  LIG1        0.0620
     23 C           5.5853    0.3045   14.1619 C.3     1  LIG1       -0.0379
     24 H           4.9454    0.3707   14.9136 H       1  LIG1        0.0275
     25 H           6.3604    0.8896   14.3572 H       1  LIG1        0.0275
     26 C           4.5172    3.4775   10.4371 C.ar    1  LIG1       -0.0194
     27 H           4.7035    3.5620    9.5090 H       1  LIG1        0.0654
     28 C           5.4046   -1.8208   12.7177 C.3     1  LIG1        0.0217
     29 H           5.6004   -2.7999   12.6699 H       1  LIG1        0.0379
     30 C           8.8156    2.6115   12.3688 C.3     1  LIG1        0.0818
     31 H           9.1372    2.1758   13.1860 H       1  LIG1        0.0661
     32 H           8.8037    3.5827   12.5006 H       1  LIG1        0.0661
     33 H           9.4117    2.3913   11.6237 H       1  LIG1        0.0661
     34 C           5.8376   -1.1072   11.4064 C.3     1  LIG1        0.0081
     35 H           6.7297   -1.4293   11.1217 H       1  LIG1        0.0316
     36 H           5.1897   -1.3017   10.6843 H       1  LIG1        0.0316
     37 C           2.9415    3.9592   15.2293 C.3     1  LIG1        0.0788
     38 H           3.5272    4.7395   15.3108 H       1  LIG1        0.0660
     39 H           2.7027    3.6344   16.1232 H       1  LIG1        0.0660
     40 H           2.1273    4.2120   14.7463 H       1  LIG1        0.0660
@<TRIPOS>BOND
     1    27    26    1
     2    26    11   ar
     3    26    21   ar
     4     2    11    1
     5     2    20    1
     6    36    34    1
     7    22    21    1
     8    35    34    1
     9    11    17   ar
    10    21    12   ar
    11    34    20    1
    12    34    28    1
    13    33    30    1
    14    20    19    1
    15    20     9    1
    16     8     6    1
    17    19     3    1
    18    19     5    2
    19     3    30    1
    20    30    32    1
    21    30    31    1
    22    17     9    1
    23    17    18   ar
    24    12    13    1
    25    12    18   ar
    26    29    28    1
    27     6     9    1
    28     6    10    1
    29     6     7    1
    30    28    10    1
    31    28    14    1
    32     9    23    1
    33    10     4    2
    34    18     1    1
    35    15    14    1
    36    14    23    1
    37    14    16    1
    38    23    25    1
    39    23    24    1
    40     1    37    1
    41    40    37    1
    42    37    38    1
    43    37    39    1
