@<TRIPOS>MOLECULE
?
 204 208 0 0 0
SMALL
GASTEIGER

@<TRIPOS>ATOM
      1 P          12.5324   22.3792   16.4469 P.3     1  LIG1        0.0000
      2 B          10.1897   24.6306   16.2229 B       1  LIG1        0.0000
      3 C          11.6448   23.8846   16.0399 C.3     1  LIG1        0.0000
      4 C          12.7518   23.7178   15.3327 C.3     1  LIG1        0.0000
      5 C          13.6197   24.3241   14.3205 C.ar    1  LIG1        0.0000
      6 C          14.9703   24.5360   14.5915 C.ar    1  LIG1        0.0000
      7 H          15.3314   24.2700   15.4171 H       1  LIG1        0.0000
      8 C          15.7772   25.1377   13.6510 C.ar    1  LIG1        0.0000
      9 H          16.6864   25.2707   13.8484 H       1  LIG1        0.0000
     10 C          15.2922   25.5502   12.4252 C.ar    1  LIG1        0.0000
     11 C          13.9437   25.3451   12.1650 C.ar    1  LIG1        0.0000
     12 H          13.5870   25.6223   11.3412 H       1  LIG1        0.0000
     13 C          13.1172   24.7411   13.0964 C.ar    1  LIG1        0.0000
     14 H          12.2059   24.6126   12.8972 H       1  LIG1        0.0000
     15 C          16.2035   26.1926   11.4129 C.3     1  LIG1        0.0000
     16 H          16.5428   27.0288   11.7647 H       1  LIG1        0.0000
     17 H          15.7098   26.3616   10.5945 H       1  LIG1        0.0000
     18 H          16.9474   25.5975   11.2245 H       1  LIG1        0.0000
     19 C          13.6893   22.1919   17.8167 C.ar    2  LIG2        0.0000
     20 C          14.9181   21.5676   17.5026 C.ar    2  LIG2        0.0000
     21 C          15.8273   21.3670   18.5364 C.ar    2  LIG2        0.0000
     22 H          16.6450   20.9455   18.3443 H       2  LIG2        0.0000
     23 C          15.5750   21.7704   19.8484 C.ar    2  LIG2        0.0000
     24 C          14.3548   22.3880   20.1086 C.ar    2  LIG2        0.0000
     25 H          14.1743   22.6720   20.9862 H       2  LIG2        0.0000
     26 C          13.4065   22.5976   19.1412 C.ar    2  LIG2        0.0000
     27 C          15.2726   21.1213   16.1206 C.3     2  LIG2        0.0000
     28 H          14.6636   20.4203   15.8406 H       2  LIG2        0.0000
     29 H          16.1818   20.7810   16.1134 H       2  LIG2        0.0000
     30 H          15.2052   21.8718   15.5104 H       2  LIG2        0.0000
     31 C          16.5776   21.5405   20.9378 C.3     2  LIG2        0.0000
     32 H          17.0257   20.6931   20.7906 H       2  LIG2        0.0000
     33 H          16.1252   21.5225   21.7957 H       2  LIG2        0.0000
     34 H          17.2323   22.2573   20.9306 H       2  LIG2        0.0000
     35 C          12.1015   23.2197   19.5935 C.3     2  LIG2        0.0000
     36 H          11.6404   22.6066   20.1858 H       2  LIG2        0.0000
     37 H          11.5447   23.4000   18.8200 H       2  LIG2        0.0000
     38 H          12.2842   24.0491   20.0619 H       2  LIG2        0.0000
     39 C          11.8449   20.8103   15.8658 C.ar    3  LIG3        0.0000
     40 C          11.1685   19.9853   16.8026 C.ar    3  LIG3        0.0000
     41 C          10.5051   18.8539   16.3306 C.ar    3  LIG3        0.0000
     42 H          10.0679   18.3017   16.9516 H       3  LIG3        0.0000
     43 C          10.4638   18.5113   14.9863 C.ar    3  LIG3        0.0000
     44 C          11.1706   19.3114   14.1105 C.ar    3  LIG3        0.0000
     45 H          11.1880   19.0680   13.2023 H       3  LIG3        0.0000
     46 C          11.8579   20.4632   14.4982 C.ar    3  LIG3        0.0000
     47 C          11.1184   20.2626   18.2833 C.3     3  LIG3        0.0000
     48 H          12.0037   20.1499   18.6638 H       3  LIG3        0.0000
     49 H          10.5051   19.6405   18.7069 H       3  LIG3        0.0000
     50 H          10.8139   21.1709   18.4323 H       3  LIG3        0.0000
     51 C           9.6590   17.3122   14.5323 C.3     3  LIG3        0.0000
     52 H           9.7917   16.5797   15.1550 H       3  LIG3        0.0000
     53 H           9.9527   17.0417   13.6474 H       3  LIG3        0.0000
     54 H           8.7195   17.5444   14.5017 H       3  LIG3        0.0000
     55 C          12.5648   21.2498   13.4464 C.3     3  LIG3        0.0000
     56 H          12.6431   20.7133   12.6406 H       3  LIG3        0.0000
     57 H          13.4500   21.4909   13.7623 H       3  LIG3        0.0000
     58 H          12.0602   22.0544   13.2508 H       3  LIG3        0.0000
     59 C          10.1506   25.6426   17.5008 C.ar    1  LIG1        0.0000
     60 C          11.2337   26.1272   18.1918 C.ar    1  LIG1        0.0000
     61 F          12.4889   25.6814   17.9199 F       1  LIG1        0.0000
     62 C          11.1554   27.0490   19.2346 C.ar    1  LIG1        0.0000
     63 F          12.2668   27.4270   19.8878 F       1  LIG1        0.0000
     64 C           9.9461   27.5629   19.5666 C.ar    1  LIG1        0.0000
     65 F           9.8396   28.4751   20.5519 F       1  LIG1        0.0000
     66 C           8.8152   27.1550   18.8864 C.ar    1  LIG1        0.0000
     67 F           7.6146   27.6628   19.1915 F       1  LIG1        0.0000
     68 C           8.9413   26.2151   17.8651 C.ar    1  LIG1        0.0000
     69 F           7.8179   25.8428   17.2305 F       1  LIG1        0.0000
     70 C           9.9222   25.5953   14.9109 C.ar    1  LIG1        0.0000
     71 C          10.8574   26.5622   14.5556 C.ar    1  LIG1        0.0000
     72 F          11.9643   26.7128   15.3130 F       1  LIG1        0.0000
     73 C          10.7465   27.3759   13.4644 C.ar    1  LIG1        0.0000
     74 F          11.7244   28.2484   13.1593 F       1  LIG1        0.0000
     75 C           9.6503   27.2632   12.6298 C.ar    1  LIG1        0.0000
     76 F           9.5481   28.0160   11.5332 F       1  LIG1        0.0000
     77 C           8.6520   26.3932   12.9690 C.ar    1  LIG1        0.0000
     78 F           7.5630   26.2872   12.2026 F       1  LIG1        0.0000
     79 C           8.7978   25.5863   14.0872 C.ar    1  LIG1        0.0000
     80 F           7.7468   24.7789   14.3605 F       1  LIG1        0.0000
     81 C           9.1805   23.3234   16.3073 C.ar    1  LIG1        0.0000
     82 C           8.5433   22.8523   17.4380 C.ar    1  LIG1        0.0000
     83 F           8.6512   23.5021   18.6227 F       1  LIG1        0.0000
     84 C           7.7799   21.7005   17.4703 C.ar    1  LIG1        0.0000
     85 F           7.1948   21.3095   18.6136 F       1  LIG1        0.0000
     86 C           7.6602   20.9523   16.3432 C.ar    1  LIG1        0.0000
     87 F           6.9510   19.7915   16.3629 F       1  LIG1        0.0000
     88 C           8.2997   21.3534   15.1820 C.ar    1  LIG1        0.0000
     89 F           8.1835   20.6146   14.0620 F       1  LIG1        0.0000
     90 C           9.0326   22.5007   15.2179 C.ar    1  LIG1        0.0000
     91 F           9.6551   22.8203   14.0464 F       1  LIG1        0.0000
     92 P          10.3046   11.5636    6.4129 P.3     4  LIG4        0.0000
     93 B           7.8821   11.1500    8.5108 B       4  LIG4        0.0000
     94 C           9.3676   11.0358    7.8557 C.3     4  LIG4        0.0000
     95 C          10.4921   10.3535    7.6565 C.3     4  LIG4        0.0000
     96 C          11.2859    9.2194    8.1752 C.ar    4  LIG4        0.0000
     97 C          10.6595    8.1028    8.6795 C.ar    4  LIG4        0.0000
     98 H           9.7199    8.0464    8.6777 H       4  LIG4        0.0000
     99 C          11.4186    7.0592    9.1964 C.ar    4  LIG4        0.0000
    100 H          10.9814    6.3064    9.5518 H       4  LIG4        0.0000
    101 C          12.7932    7.0998    9.1982 C.ar    4  LIG4        0.0000
    102 C          13.4174    8.2110    8.6616 C.ar    4  LIG4        0.0000
    103 H          14.3570    8.2538    8.6400 H       4  LIG4        0.0000
    104 C          12.6714    9.2658    8.1518 C.ar    4  LIG4        0.0000
    105 H          13.1085   10.0163    7.7911 H       4  LIG4        0.0000
    106 C          13.6044    5.9661    9.7923 C.3     4  LIG4        0.0000
    107 H          13.0716    5.1569    9.8012 H       4  LIG4        0.0000
    108 H          13.8633    6.1937   10.6986 H       4  LIG4        0.0000
    109 H          14.4005    5.8241    9.2556 H       4  LIG4        0.0000
    110 C          11.4730   12.9446    6.4468 C.ar    5  LIG5        0.0000
    111 C          11.1554   14.2086    7.0158 C.ar    5  LIG5        0.0000
    112 C          12.1972   15.1485    7.1073 C.ar    5  LIG5        0.0000
    113 H          12.0124   15.9959    7.4680 H       5  LIG5        0.0000
    114 C          13.4848   14.8667    6.6837 C.ar    5  LIG5        0.0000
    115 C          13.7436   13.6474    6.1112 C.ar    5  LIG5        0.0000
    116 H          14.6180   13.4603    5.8204 H       5  LIG5        0.0000
    117 C          12.7605   12.6759    5.9461 C.ar    5  LIG5        0.0000
    118 C           9.8069   14.6413    7.4303 C.3     5  LIG5        0.0000
    119 H           9.8417   14.9929    8.3331 H       5  LIG5        0.0000
    120 H           9.2001   13.8840    7.4016 H       5  LIG5        0.0000
    121 H           9.4894   15.3310    6.8273 H       5  LIG5        0.0000
    122 C          14.5832   15.8968    6.8363 C.3     5  LIG5        0.0000
    123 H          14.8355   15.9621    7.7696 H       5  LIG5        0.0000
    124 H          14.2635   16.7600    6.5258 H       5  LIG5        0.0000
    125 H          15.3531   15.6285    6.3104 H       5  LIG5        0.0000
    126 C          13.1064   11.4070    5.1977 C.3     5  LIG5        0.0000
    127 H          12.7605   11.4611    4.2931 H       5  LIG5        0.0000
    128 H          12.7105   10.6474    5.6499 H       5  LIG5        0.0000
    129 H          14.0699   11.3011    5.1689 H       5  LIG5        0.0000
    130 C           9.7626   11.0955    4.7543 C.ar    6  LIG6        0.0000
    131 C           9.2153   12.0832    3.9072 C.ar    6  LIG6        0.0000
    132 C           8.7673   11.7068    2.6491 C.ar    6  LIG6        0.0000
    133 H           8.4019   12.3671    2.0873 H       6  LIG6        0.0000
    134 C           8.8304   10.3972    2.1824 C.ar    6  LIG6        0.0000
    135 C           9.3632    9.4438    3.0403 C.ar    6  LIG6        0.0000
    136 H           9.4046    8.5513    2.7514 H       6  LIG6        0.0000
    137 C           9.8352    9.7526    4.3074 C.ar    6  LIG6        0.0000
    138 C           9.0805   13.5437    4.2949 C.3     6  LIG6        0.0000
    139 H           8.5107   13.9967    3.6542 H       6  LIG6        0.0000
    140 H           9.9570   13.9607    4.3003 H       6  LIG6        0.0000
    141 H           8.6868   13.6090    5.1797 H       6  LIG6        0.0000
    142 C           8.3497   10.0141    0.8166 C.3     6  LIG6        0.0000
    143 H           9.0870   10.0637    0.1885 H       6  LIG6        0.0000
    144 H           7.6450   10.6204    0.5384 H       6  LIG6        0.0000
    145 H           8.0039    9.1080    0.8382 H       6  LIG6        0.0000
    146 C          10.3964    8.6099    5.1259 C.3     6  LIG6        0.0000
    147 H          11.2859    8.8398    5.4346 H       6  LIG6        0.0000
    148 H          10.4420    7.8120    4.5767 H       6  LIG6        0.0000
    149 H           9.8200    8.4454    5.8886 H       6  LIG6        0.0000
    150 C           7.5885    9.8721    9.5069 C.ar    4  LIG4        0.0000
    151 C           8.4933    9.5678   10.5335 C.ar    4  LIG4        0.0000
    152 F           9.6316   10.2814   10.6457 F       4  LIG4        0.0000
    153 C           8.3301    8.5423   11.4435 C.ar    4  LIG4        0.0000
    154 F           9.2899    8.2804   12.3378 F       4  LIG4        0.0000
    155 C           7.1709    7.8165   11.4147 C.ar    4  LIG4        0.0000
    156 F           6.9614    6.8322   12.3258 F       4  LIG4        0.0000
    157 C           6.2161    8.0825   10.4797 C.ar    4  LIG4        0.0000
    158 F           5.0838    7.3784   10.4420 F       4  LIG4        0.0000
    159 C           6.4531    9.0945    9.5374 C.ar    4  LIG4        0.0000
    160 F           5.4644    9.2791    8.6325 F       4  LIG4        0.0000
    161 C           7.6652   12.4555    9.4692 C.ar    4  LIG4        0.0000
    162 C           8.6816   13.1628   10.0938 C.ar    4  LIG4        0.0000
    163 F           9.9777   12.8790    9.8228 F       4  LIG4        0.0000
    164 C           8.4693   14.1815   10.9876 C.ar    4  LIG4        0.0000
    165 F           9.5081   14.8262   11.5476 F       4  LIG4        0.0000
    166 C           7.1970   14.5489   11.3160 C.ar    4  LIG4        0.0000
    167 F           6.9597   15.5537   12.1764 F       4  LIG4        0.0000
    168 C           6.1399   13.8682   10.7417 C.ar    4  LIG4        0.0000
    169 F           4.8743   14.2167   11.0561 F       4  LIG4        0.0000
    170 C           6.4051   12.8562    9.8587 C.ar    4  LIG4        0.0000
    171 F           5.3187   12.1977    9.3716 F       4  LIG4        0.0000
    172 C           6.9923   11.1358    7.1163 C.ar    4  LIG4        0.0000
    173 C           6.4075   12.2364    6.4989 C.ar    4  LIG4        0.0000
    174 F           6.4366   13.4447    7.1145 F       4  LIG4        0.0000
    175 C           5.8202   12.2139    5.2479 C.ar    4  LIG4        0.0000
    176 F           5.2771   13.3282    4.7504 F       4  LIG4        0.0000
    177 C           5.8028   11.0554    4.5426 C.ar    4  LIG4        0.0000
    178 F           5.2447   11.0135    3.3083 F       4  LIG4        0.0000
    179 C           6.3618    9.9262    5.0738 C.ar    4  LIG4        0.0000
    180 F           6.3418    8.7636    4.3848 F       4  LIG4        0.0000
    181 C           6.9295    9.9929    6.3194 C.ar    4  LIG4        0.0000
    182 F           7.4978    8.8452    6.7792 F       4  LIG4        0.0000
    183 C          18.2589   17.6503   26.9772 C.3     7  LIG7        0.0000
    184 H          18.7896   17.0215   27.4923 H       7  LIG7        0.0000
    185 H          17.4041   17.7878   27.4169 H       7  LIG7        0.0000
    186 H          18.7287   18.4955   26.9144 H       7  LIG7        0.0000
    187 C          18.0566   17.1657   25.7621 C.3     7  LIG7        0.0000
    188 H          17.9109   16.2078   25.9093 H       7  LIG7        0.0000
    189 H          17.1823   17.5263   25.5037 H       7  LIG7        0.0000
    190 C          18.7613   17.2153   24.6583 C.3     7  LIG7        0.0000
    191 H          19.4682   16.5436   24.7517 H       7  LIG7        0.0000
    192 H          19.2050   18.0898   24.6530 H       7  LIG7        0.0000
    193 C          18.2371   17.0462   23.4200 C.3     7  LIG7        0.0000
    194 H          18.9875   16.7600   22.8564 H       7  LIG7        0.0000
    195 H          17.6412   16.2732   23.4917 H       7  LIG7        0.0000
    196 C          17.5694   17.9433   22.6895 C.3     7  LIG7        0.0000
    197 H          16.7016   18.1078   23.0933 H       7  LIG7        0.0000
    198 H          17.4454   17.6007   21.7885 H       7  LIG7        0.0000
    199 H          18.0718   18.7727   22.6536 H       7  LIG7        0.0000
    200 C           4.2912   16.8231   15.5535 C.3     1  LIG1        0.0000
    201 H           3.7757   16.0906   15.1586 H       1  LIG1        0.0000
    202 H           3.9715   17.6661   15.1730 H       1  LIG1        0.0000
    203 CL          5.8833   16.6293   15.2232 Cl      1  LIG1        0.0000
    204 CL          4.0670   16.8344   17.3985 Cl      1  LIG1        0.0000
@<TRIPOS>BOND
     1   143   142    1
     2   144   142    1
     3   142   145    1
     4   142   134    1
     5   133   132    1
     6   134   132   ar
     7   134   135   ar
     8   132   131   ar
     9   136   135    1
    10   135   137   ar
    11   178   177    1
    12   139   138    1
    13   131   138    1
    14   131   130   ar
    15   127   126    1
    16   138   140    1
    17   138   141    1
    18   137   130   ar
    19   137   146    1
    20   180   179    1
    21   177   179   ar
    22   177   175   ar
    23   148   146    1
    24   176   175    1
    25   179   181   ar
    26   146   147    1
    27   146   149    1
    28   129   126    1
    29   126   128    1
    30   126   117    1
    31   175   173   ar
    32   116   115    1
    33   117   115   ar
    34   117   110   ar
    35   115   114   ar
    36   125   122    1
    37   181   182    1
    38   181   172   ar
    39    92    95    1
    40   110   111   ar
    41   173   174    1
    42   173   172   ar
    43   124   122    1
    44   114   122    1
    45   114   112   ar
    46   121   118    1
    47   122   123    1
    48   111   112   ar
    49   111   118    1
    50   112   113    1
    51   172    93    1
    52   120   118    1
    53   118   119    1
    54    95    94    1
    55    95    96    1
    56   105   104    1
    57    94    93    1
    58   104    96   ar
    59   104   102   ar
    60    96    97   ar
    61    93   161    1
    62    93   150    1
    63   160   159    1
    64   103   102    1
    65   102   101   ar
    66    98    97    1
    67    97    99   ar
    68    99   101   ar
    69    99   100    1
    70   101   106    1
    71   109   106    1
    72   171   170    1
    73   161   170   ar
    74   161   162   ar
    75   150   159   ar
    76   150   151   ar
    77   159   157   ar
    78   106   107    1
    79   106   108    1
    80   163   162    1
    81   170   168   ar
    82   162   164   ar
    83   158   157    1
    84   157   155   ar
    85   151   152    1
    86   151   153   ar
    87    17    15    1
    88   168   169    1
    89   168   166   ar
    90   164   166   ar
    91   164   165    1
    92    18    15    1
    93   166   167    1
    94    12    11    1
    95    15    16    1
    96    15    10    1
    97   155   153   ar
    98   155   156    1
    99   153   154    1
   100    76    75    1
   101    11    10   ar
   102    11    13   ar
   103    78    77    1
   104    10     8   ar
   105    75    77   ar
   106    75    73   ar
   107    56    55    1
   108    14    13    1
   109    77    79   ar
   110    13     5   ar
   111    74    73    1
   112    45    44    1
   113    58    55    1
   114    55    57    1
   115    55    46    1
   116    73    71   ar
   117    53    51    1
   118     8     9    1
   119     8     6   ar
   120    91    90    1
   121    89    88    1
   122    79    80    1
   123    79    70   ar
   124    44    46   ar
   125    44    43   ar
   126     5     6   ar
   127     5     4    1
   128    46    39   ar
   129    54    51    1
   130    51    43    1
   131    51    52    1
   132    71    70   ar
   133    71    72    1
   134     6     7    1
   135    70     2    1
   136    43    41   ar
   137   201   200    1
   138   202   200    1
   139    88    90   ar
   140    88    86   ar
   141    90    81   ar
   142   203   200    1
   143     4     3    1
   144     4     1    1
   145    30    27    1
   146   200   204    1
   147    28    27    1
   148    39    40   ar
   149     3     2    1
   150    29    27    1
   151    27    20    1
   152     2    81    1
   153     2    59    1
   154    81    82   ar
   155    41    40   ar
   156    41    42    1
   157    86    87    1
   158    86    84   ar
   159    40    47    1
   160    69    68    1
   161    82    84   ar
   162    82    83    1
   163    84    85    1
   164    59    68   ar
   165    59    60   ar
   166    20    19   ar
   167    20    21   ar
   168    19    26   ar
   169    68    66   ar
   170    61    60    1
   171    60    62   ar
   172    47    50    1
   173    47    48    1
   174    47    49    1
   175    22    21    1
   176    21    23   ar
   177    37    35    1
   178    66    67    1
   179    66    64   ar
   180    26    35    1
   181    26    24   ar
   182    62    64   ar
   183    62    63    1
   184    64    65    1
   185    35    38    1
   186    35    36    1
   187    23    24   ar
   188    23    31    1
   189    24    25    1
   190    32    31    1
   191    34    31    1
   192    31    33    1
   193   198   196    1
   194   199   196    1
   195   196   197    1
   196   196   193    1
   197   194   193    1
   198   193   195    1
   199   193   190    1
   200   192   190    1
   201   190   191    1
   202   190   187    1
   203   189   187    1
   204   187   188    1
   205   187   183    1
   206   186   183    1
   207   183   185    1
   208   183   184    1
