@<TRIPOS>MOLECULE
?
 108 112 0 0 0
SMALL
GASTEIGER

@<TRIPOS>ATOM
      1 C          -0.7294   10.0078   22.7014 C.ar    1  LIG1        0.0410
      2 C           0.5726   10.3087   22.4826 C.ar    1  LIG1       -0.0431
      3 H           0.9469   11.0735   22.8592 H       1  LIG1        0.0632
      4 C           1.3449    9.4691   21.6939 C.ar    1  LIG1       -0.0554
      5 H           2.2444    9.6595   21.5583 H       1  LIG1        0.0621
      6 C           0.7858    8.3536   21.1098 C.ar    1  LIG1       -0.0261
      7 C          -0.5431    8.0978   21.3190 C.ar    1  LIG1       -0.0554
      8 H          -0.9365    7.3609   20.9099 H       1  LIG1        0.0621
      9 C          -1.3108    8.9147   22.1248 C.ar    1  LIG1       -0.0431
     10 H          -2.2089    8.7232   22.2720 H       1  LIG1        0.0632
     11 C           1.6249    7.5325   20.1680 C.3     1  LIG1        0.0658
     12 H           2.5714    7.7164   20.3411 H       1  LIG1        0.0559
     13 C           1.3099    7.8516   18.6883 C.3     1  LIG1        0.0923
     14 H           0.3492    8.0092   18.5753 H       1  LIG1        0.0442
     15 C           2.0891    9.0692   18.2446 C.2     1  LIG1        0.3130
     16 C           1.9071   11.4211   17.9208 C.3     1  LIG1        0.0897
     17 H           1.5283   12.0756   18.5284 H       1  LIG1        0.0694
     18 H           2.8614   11.3694   18.0880 H       1  LIG1        0.0694
     19 C           1.6881   11.8078   16.6423 C.3     1  LIG1       -0.0306
     20 H           2.0254   11.1377   16.0429 H       1  LIG1        0.0262
     21 H           2.1408   12.6393   16.4772 H       1  LIG1        0.0262
     22 H           0.7471   11.9222   16.4975 H       1  LIG1        0.0262
     23 C           1.7167    6.5675   17.9699 C.3     1  LIG1        0.0981
     24 H           2.6956    6.5326   17.9616 H       1  LIG1        0.0420
     25 C           1.2531    6.4653   16.5500 C.3     1  LIG1        0.3959
     26 C           1.2275    5.4642   18.9074 C.3     1  LIG1        0.1356
     27 H           1.8079    4.6787   18.8281 H       1  LIG1        0.0623
     28 C          -0.2267    5.0520   18.7225 C.2     1  LIG1        0.3282
     29 C          -1.6585    3.4777   17.7493 C.3     1  LIG1        0.0817
     30 H          -2.1127    3.3164   18.5794 H       1  LIG1        0.0661
     31 H          -1.6289    2.6666   17.2377 H       1  LIG1        0.0661
     32 H          -2.1290    4.1510   17.2540 H       1  LIG1        0.0661
     33 C           1.2157    5.2756   21.2978 C.2     1  LIG1        0.2478
     34 C           1.5585    5.7408   22.6572 C.ar    1  LIG1        0.0369
     35 C           2.7208    6.4150   22.9387 C.ar    1  LIG1       -0.0496
     36 H           3.2815    6.6798   22.2455 H       1  LIG1        0.0625
     37 C           3.0596    6.7001   24.2439 C.ar    1  LIG1       -0.0610
     38 H           3.8585    7.1370   24.4313 H       1  LIG1        0.0618
     39 C           2.2178    6.3431   25.2632 C.ar    1  LIG1       -0.0617
     40 H           2.4471    6.5389   26.1441 H       1  LIG1        0.0618
     41 C           1.0445    5.7011   24.9910 C.ar    1  LIG1       -0.0610
     42 H           0.4586    5.4866   25.6812 H       1  LIG1        0.0618
     43 C           0.7294    5.3715   23.6918 C.ar    1  LIG1       -0.0496
     44 H          -0.0503    4.8963   23.5117 H       1  LIG1        0.0625
     45 C           4.8602   11.2152   21.8511 C.ar    2  LIG2        0.0410
     46 C           5.2892   11.0328   20.5908 C.ar    2  LIG2       -0.0431
     47 H           5.1191   11.6748   19.9394 H       2  LIG2        0.0632
     48 C           5.9920    9.8764   20.2656 C.ar    2  LIG2       -0.0554
     49 H           6.2923    9.7504   19.3950 H       2  LIG2        0.0621
     50 C           6.2448    8.9227   21.2131 C.ar    2  LIG2       -0.0261
     51 C           5.7627    9.1427   22.4783 C.ar    2  LIG2       -0.0554
     52 H           5.9047    8.4993   23.1345 H       2  LIG2        0.0621
     53 C           5.0762   10.2874   22.8042 C.ar    2  LIG2       -0.0431
     54 H           4.7655   10.4190   23.6707 H       2  LIG2        0.0632
     55 C           7.0291    7.6692   20.9299 C.3     2  LIG2        0.0658
     56 H           6.8087    7.0117   21.6236 H       2  LIG2        0.0559
     57 C           8.0093    6.6453   18.9441 C.3     2  LIG2        0.1356
     58 H           7.9138    5.7387   18.5834 H       2  LIG2        0.0623
     59 C           8.3737    7.6161   17.8323 C.2     2  LIG2        0.3282
     60 C           9.5235    7.7915   15.7782 C.3     2  LIG2        0.0817
     61 H           8.7838    8.1564   15.2884 H       2  LIG2        0.0661
     62 H          10.0606    7.2544   15.1905 H       2  LIG2        0.0661
     63 H          10.0576    8.5055   16.1346 H       2  LIG2        0.0661
     64 C           8.9976    6.6441   20.1135 C.3     2  LIG2        0.0981
     65 H           8.8001    5.8515   20.6551 H       2  LIG2        0.0420
     66 C          10.4503    6.5843   19.7628 C.3     2  LIG2        0.3959
     67 C           8.5554    7.8581   20.9250 C.3     2  LIG2        0.0923
     68 H           8.7690    8.6684   20.4165 H       2  LIG2        0.0442
     69 C           9.1714    7.9699   22.2873 C.2     2  LIG2        0.3130
     70 C           9.2972    7.0618   24.4574 C.3     2  LIG2        0.0897
     71 H          10.2544    6.9037   24.4191 H       2  LIG2        0.0694
     72 H           9.1463    7.9309   24.8636 H       2  LIG2        0.0694
     73 C           8.6506    6.0237   25.2440 C.3     2  LIG2       -0.0306
     74 H           7.7052    6.1834   25.2673 H       2  LIG2        0.0262
     75 H           8.9998    6.0362   26.1379 H       2  LIG2        0.0262
     76 H           8.8223    5.1672   24.8452 H       2  LIG2        0.0262
     77 C           5.5934    6.3818   19.4627 C.2     2  LIG2        0.2478
     78 C           5.3741    5.6122   18.2015 C.ar    2  LIG2        0.0369
     79 C           4.8720    4.3353   18.3247 C.ar    2  LIG2       -0.0496
     80 H           4.7270    3.9662   19.1666 H       2  LIG2        0.0625
     81 C           4.5850    3.6108   17.1908 C.ar    2  LIG2       -0.0610
     82 H           4.2358    2.7511   17.2683 H       2  LIG2        0.0618
     83 C           4.8113    4.1432   15.9593 C.ar    2  LIG2       -0.0617
     84 H           4.6353    3.6390   15.1967 H       2  LIG2        0.0618
     85 C           5.2937    5.4162   15.8339 C.ar    2  LIG2       -0.0610
     86 H           5.4209    5.7873   14.9907 H       2  LIG2        0.0618
     87 C           5.5895    6.1474   16.9624 C.ar    2  LIG2       -0.0496
     88 H           5.9372    7.0055   16.8809 H       2  LIG2        0.0625
     89 CL         -1.6958   11.0414   23.7042 Cl      1  LIG1       -0.0835
     90 CL          3.9475   12.6501   22.2453 Cl      2  LIG2       -0.0835
     91 F          -0.0746    6.5658   16.4237 F       1  LIG1       -0.1703
     92 F           1.5937    5.3138   15.9902 F       1  LIG1       -0.1703
     93 F           1.7596    7.4408   15.8010 F       1  LIG1       -0.1703
     94 F          11.1957    6.4343   20.8683 F       2  LIG2       -0.1703
     95 F          10.9055    7.6565   19.1499 F       2  LIG2       -0.1703
     96 F          10.7153    5.5396   18.9859 F       2  LIG2       -0.1703
     97 N           1.4005    6.0763   20.2167 N.am    1  LIG1       -0.2756
     98 N           6.7733    7.0506   19.6203 N.am    2  LIG2       -0.2756
     99 O           3.2657    9.0746   18.0539 O.2     1  LIG1       -0.2504
    100 O           1.2968   10.1188   18.1624 O.3     1  LIG1       -0.4647
    101 O          -1.1499    5.6769   19.1185 O.2     1  LIG1       -0.2487
    102 O          -0.3134    3.9274   18.0162 O.3     1  LIG1       -0.4666
    103 O           0.7742    4.1411   21.1196 O.2     1  LIG1       -0.2699
    104 O           8.7333    7.0312   23.1159 O.3     2  LIG2       -0.4647
    105 O           9.9770    8.8018   22.5940 O.2     2  LIG2       -0.2504
    106 O           8.1427    8.7861   17.8233 O.2     2  LIG2       -0.2487
    107 O           9.0264    6.9677   16.8682 O.3     2  LIG2       -0.4666
    108 O           4.7316    6.4236   20.3235 O.2     2  LIG2       -0.2699
@<TRIPOS>BOND
     1    86    85    1
     2    62    60    1
     3    84    83    1
     4    61    60    1
     5    60    63    1
     6    60   107    1
     7    93    25    1
     8    85    83   ar
     9    85    87   ar
    10    83    81   ar
    11    92    25    1
    12    20    19    1
    13    91    25    1
    14    21    19    1
    15    22    19    1
    16    25    23    1
    17    19    16    1
    18   107    59    1
    19    88    87    1
    20    87    78   ar
    21    81    82    1
    22    81    79   ar
    23    31    29    1
    24    32    29    1
    25    29   102    1
    26    29    30    1
    27   106    59    2
    28    59    57    1
    29    16    18    1
    30    16   100    1
    31    16    17    1
    32    24    23    1
    33    23    13    1
    34    23    26    1
    35   102    28    1
    36    99    15    2
    37   100    15    1
    38    78    79   ar
    39    78    77    1
    40    15    13    1
    41    79    80    1
    42    14    13    1
    43    58    57    1
    44    13    11    1
    45    28    26    1
    46    28   101    2
    47    27    26    1
    48    26    97    1
    49    57    98    1
    50    57    64    1
    51    96    66    1
    52    95    66    1
    53    49    48    1
    54    77    98   am
    55    77   108    2
    56    98    55    1
    57    66    64    1
    58    66    94    1
    59    47    46    1
    60    64    65    1
    61    64    67    1
    62    11    97    1
    63    11    12    1
    64    11     6    1
    65    97    33   am
    66    48    46   ar
    67    48    50   ar
    68    68    67    1
    69    46    45   ar
    70     8     7    1
    71    67    55    1
    72    67    69    1
    73    55    50    1
    74    55    56    1
    75     6     7   ar
    76     6     4   ar
    77   103    33    2
    78    50    51   ar
    79    33    34    1
    80     7     9   ar
    81     5     4    1
    82     4     2   ar
    83    45    90    1
    84    45    53   ar
    85     9    10    1
    86     9     1   ar
    87    36    35    1
    88    69   105    2
    89    69   104    1
    90    51    53   ar
    91    51    52    1
    92     2     1   ar
    93     2     3    1
    94    34    35   ar
    95    34    43   ar
    96     1    89    1
    97    53    54    1
    98    35    37   ar
    99   104    70    1
   100    44    43    1
   101    43    41   ar
   102    37    38    1
   103    37    39   ar
   104    71    70    1
   105    70    72    1
   106    70    73    1
   107    76    73    1
   108    41    39   ar
   109    41    42    1
   110    73    74    1
   111    73    75    1
   112    39    40    1
