@<TRIPOS>MOLECULE
?
 36 37 0 0 0
SMALL
GASTEIGER

@<TRIPOS>ATOM
      1 O           8.4506    5.0667   12.0463 O.2     1  LIG1       -0.1528
      2 O           6.9369    3.5074   13.2244 O.2     1  LIG1       -0.1528
      3 S           7.3472    4.8454   12.9227 S.O2    1  LIG1        0.0614
      4 N           6.0488    5.5932   12.2501 N.3     1  LIG1       -0.1685
      5 C           7.6667    5.6663   14.4482 C.ar    1  LIG1        0.1055
      6 C           4.7493    5.2887   12.8732 C.3     1  LIG1        0.0393
      7 H           4.7501    5.5907   13.7957 H       1  LIG1        0.0487
      8 H           4.6018    4.3300   12.8695 H       1  LIG1        0.0487
      9 C           6.2225    7.0219   11.9191 C.3     1  LIG1        0.0458
     10 H           7.1002    7.1632   11.5321 H       1  LIG1        0.0493
     11 H           6.1596    7.5536   12.7274 H       1  LIG1        0.0493
     12 C           8.4138    6.8419   14.4482 C.ar    1  LIG1       -0.0351
     13 H           8.7749    7.1727   13.6569 H       1  LIG1        0.0637
     14 C           8.6104    7.5036   15.6395 C.ar    1  LIG1       -0.0570
     15 H           9.1077    8.2898   15.6447 H       1  LIG1        0.0621
     16 C           3.6540    5.9684   12.1231 C.2     1  LIG1       -0.0681
     17 H           2.7780    5.7099   12.2994 H       1  LIG1        0.0585
     18 C           3.8515    6.9185   11.2205 C.2     1  LIG1       -0.0600
     19 H           3.1229    7.2504   10.7480 H       1  LIG1        0.0618
     20 C           7.3492    5.8620   16.8079 C.ar    1  LIG1       -0.0570
     21 H           6.9922    5.5322   17.6007 H       1  LIG1        0.0621
     22 C           5.1668    7.4561   10.9469 C.2     1  LIG1       -0.0319
     23 C           7.1332    5.1751   15.6263 C.ar    1  LIG1       -0.0351
     24 H           6.6343    4.3907   15.6246 H       1  LIG1        0.0637
     25 C           5.4666    8.3377    9.9668 C.2     1  LIG1       -0.0578
     26 H           6.3490    8.6271    9.9255 H       1  LIG1        0.0621
     27 C           8.3526    7.7526   18.1285 C.3     1  LIG1       -0.0397
     28 H           8.8691    8.5430   17.9551 H       1  LIG1        0.0278
     29 H           8.8385    7.1759   18.7208 H       1  LIG1        0.0278
     30 H           7.5176    7.9983   18.5336 H       1  LIG1        0.0278
     31 C           8.0866    7.0302   16.8287 C.ar    1  LIG1       -0.0503
     32 C           4.5680    8.8760    8.9824 C.2     1  LIG1       -0.0686
     33 H           3.6927    8.5632    8.9742 H       1  LIG1        0.0612
     34 C           4.9064    9.7835    8.0939 C.2     1  LIG1       -0.0987
     35 H           5.7744   10.1165    8.0765 H       1  LIG1        0.0535
     36 H           4.2778   10.0921    7.4813 H       1  LIG1        0.0535
@<TRIPOS>BOND
     1    36    34    1
     2    35    34    1
     3    34    32    2
     4    33    32    1
     5    32    25    1
     6    26    25    1
     7    25    22    2
     8    19    18    1
     9    22    18    1
    10    22     9    1
    11    18    16    2
    12    10     9    1
    13     9     4    1
    14     9    11    1
    15     1     3    2
    16    16    17    1
    17    16     6    1
    18     4     6    1
    19     4     3    1
    20     8     6    1
    21     6     7    1
    22     3     2    2
    23     3     5    1
    24    13    12    1
    25    12     5   ar
    26    12    14   ar
    27     5    23   ar
    28    24    23    1
    29    23    20   ar
    30    14    15    1
    31    14    31   ar
    32    20    31   ar
    33    20    21    1
    34    31    27    1
    35    28    27    1
    36    27    30    1
    37    27    29    1
