@<TRIPOS>MOLECULE
?
 65 68 0 0 0
SMALL
GASTEIGER

@<TRIPOS>ATOM
      1 C           7.4758    2.3082    3.6315 C.3     1  LIG1        0.0347
      2 C           8.0619    3.6667    3.9721 C.2     1  LIG1       -0.0280
      3 C           8.3048    4.5375    2.9942 C.2     1  LIG1        0.0266
      4 H           8.7576    5.3233    3.1978 H       1  LIG1        0.0692
      5 C           7.8898    4.3059    1.6198 C.2     1  LIG1        0.3328
      6 C           7.8780    1.9790    2.1916 C.3     1  LIG1        0.1405
      7 H           8.8513    1.8654    2.1675 H       1  LIG1        0.0795
      8 C           8.0735    1.2260    4.5524 C.3     1  LIG1       -0.0393
      9 H           7.5744    0.4014    4.4356 H       1  LIG1        0.0275
     10 H           8.9902    1.0573    4.2848 H       1  LIG1        0.0275
     11 C           8.0508    1.6127    6.0294 C.3     1  LIG1       -0.0444
     12 H           8.4838    0.9104    6.5401 H       1  LIG1        0.0272
     13 H           7.1279    1.6607    6.3229 H       1  LIG1        0.0272
     14 C           8.7375    2.9481    6.3504 C.3     1  LIG1       -0.0034
     15 H           8.3967    3.2034    7.2323 H       1  LIG1        0.0358
     16 C           8.2167    4.0091    5.4048 C.2     1  LIG1       -0.0464
     17 C          11.7172    4.5189    4.9727 C.2     1  LIG1       -0.0220
     18 H          11.8432    4.8642    4.1179 H       1  LIG1        0.0649
     19 C          12.2510    5.1454    5.9976 C.2     1  LIG1       -0.0747
     20 H          12.8117    5.8664    5.8190 H       1  LIG1        0.0579
     21 C          12.0225    4.7836    7.4298 C.3     1  LIG1       -0.0123
     22 C          10.6440    4.1015    7.5378 C.3     1  LIG1       -0.0094
     23 H          10.0047    4.8143    7.3296 H       1  LIG1        0.0324
     24 C          10.3222    2.9754    6.4968 C.3     1  LIG1        0.0410
     25 C          10.9421    3.3139    5.1319 C.2     1  LIG1        0.1625
     26 C           5.8210   -0.6323    0.6398 C.ar    1  LIG1        0.0921
     27 H           5.0560   -0.9786    0.2396 H       1  LIG1        0.1029
     28 C           5.9816    0.6126    1.0420 C.ar    1  LIG1       -0.0172
     29 H           5.3504    1.2908    0.9629 H       1  LIG1        0.0653
     30 C           7.2573    0.7506    1.6097 C.ar    1  LIG1        0.0313
     31 C           7.8160   -0.4696    1.5074 C.ar    1  LIG1        0.0984
     32 H           8.6688   -0.6821    1.8102 H       1  LIG1        0.1033
     33 C           7.7948    5.1989    5.8297 C.2     1  LIG1       -0.0949
     34 H           7.4123    5.7982    5.2295 H       1  LIG1        0.0538
     35 H           7.8837    5.4309    6.7251 H       1  LIG1        0.0538
     36 C          10.3017    3.6935    8.9833 C.3     1  LIG1        0.0494
     37 H          10.1203    2.7417    8.9965 H       1  LIG1        0.0381
     38 H          11.0827    3.8488    9.5367 H       1  LIG1        0.0381
     39 C          10.8763    1.5917    6.8846 C.3     1  LIG1       -0.0516
     40 H          10.5186    1.3302    7.7362 H       1  LIG1        0.0239
     41 H          11.8341    1.6345    6.9391 H       1  LIG1        0.0239
     42 H          10.6222    0.9471    6.2202 H       1  LIG1        0.0239
     43 C          11.9927    6.0909    8.2454 C.3     1  LIG1       -0.0560
     44 H          11.8404    5.8874    9.1709 H       1  LIG1        0.0238
     45 H          11.2859    6.6534    7.9213 H       1  LIG1        0.0238
     46 H          12.8327    6.5459    8.1523 H       1  LIG1        0.0238
     47 C          13.2176    3.9362    7.9202 C.3     1  LIG1       -0.0560
     48 H          13.0783    3.6862    8.8371 H       1  LIG1        0.0238
     49 H          14.0250    4.4496    7.8485 H       1  LIG1        0.0238
     50 H          13.2920    3.1457    7.3810 H       1  LIG1        0.0238
     51 C           9.1347    4.4037    9.6063 C.2     1  LIG1        0.3071
     52 C           7.6759    4.3951   11.4571 C.3     1  LIG1        0.0817
     53 H           7.5232    3.9118   12.2734 H       1  LIG1        0.0661
     54 H           6.8959    4.3368   10.9008 H       1  LIG1        0.0661
     55 H           7.8583    5.3154   11.6593 H       1  LIG1        0.0661
     56 C           5.9526    2.4014    3.8044 C.3     1  LIG1       -0.0518
     57 H           5.5539    1.5532    3.5937 H       1  LIG1        0.0239
     58 H           5.6043    3.0749    3.2160 H       1  LIG1        0.0239
     59 H           5.7473    2.6341    4.7138 H       1  LIG1        0.0239
     60 O           7.5255    3.0573    1.2741 O.3     1  LIG1       -0.4525
     61 O           6.9797   -1.3428    0.9095 O.2     1  LIG1       -0.4706
     62 O           7.7872    5.1779    0.7875 O.2     1  LIG1       -0.2456
     63 O          10.8253    2.5507    4.1844 O.2     1  LIG1       -0.2921
     64 O           8.5652    5.3535    9.1638 O.2     1  LIG1       -0.2509
     65 O           8.8095    3.8202   10.7622 O.3     1  LIG1       -0.4679
@<TRIPOS>BOND
     1    27    26    1
     2    26    61   ar
     3    26    28   ar
     4    62     5    2
     5    61    31   ar
     6    29    28    1
     7    28    30   ar
     8    60     5    1
     9    60     6    1
    10    31    30   ar
    11    31    32    1
    12    30     6    1
    13     5     3    1
    14     7     6    1
    15     6     1    1
    16     3     4    1
    17     3     2    2
    18    58    56    1
    19    57    56    1
    20     1    56    1
    21     1     2    1
    22     1     8    1
    23    56    59    1
    24     2    16    1
    25    18    17    1
    26    63    25    2
    27    10     8    1
    28     9     8    1
    29     8    11    1
    30    17    25    1
    31    17    19    2
    32    25    24    1
    33    34    33    1
    34    16    33    2
    35    16    14    1
    36    20    19    1
    37    33    35    1
    38    19    21    1
    39    11    13    1
    40    11    14    1
    41    11    12    1
    42    42    39    1
    43    14    24    1
    44    14    15    1
    45    24    39    1
    46    24    22    1
    47    39    41    1
    48    39    40    1
    49    23    22    1
    50    50    47    1
    51    21    22    1
    52    21    47    1
    53    21    43    1
    54    22    36    1
    55    49    47    1
    56    47    48    1
    57    45    43    1
    58    46    43    1
    59    43    44    1
    60    36    37    1
    61    36    38    1
    62    36    51    1
    63    64    51    2
    64    51    65    1
    65    65    52    1
    66    54    52    1
    67    52    55    1
    68    52    53    1
