@<TRIPOS>MOLECULE
?
 62 60 0 0 0
SMALL
GASTEIGER

@<TRIPOS>ATOM
      1 P          -0.8520    5.8170    9.9518 P.3     1  LIG1        0.5321
      2 F          -2.8749    1.3707    8.8156 F       1  LIG1       -0.2434
      3 O           0.6430    5.7825    9.6688 O.3     1  LIG1       -0.1145
      4 O          -1.1750    5.5707   11.4206 O.3     1  LIG1       -0.1145
      5 O          -1.3845    4.5152    9.1375 O.3     1  LIG1       -0.2781
      6 O          -1.5700    7.0343    9.4010 O.2     1  LIG1       -0.2224
      7 O          -3.3020    3.9405   11.2911 O.3     1  LIG1       -0.3610
      8 H          -2.5970    4.3942   11.3459 H       1  LIG1        0.2129
      9 O          -4.7657    3.2053    9.6888 O.3     1  LIG1       -0.3610
     10 H          -5.1473    3.9512    9.6349 H       1  LIG1        0.2129
     11 C          -2.7860    4.3107    8.9361 C.3     1  LIG1        0.1153
     12 H          -2.9287    3.9156    8.0387 H       1  LIG1        0.0620
     13 H          -3.2455    5.1885    8.9577 H       1  LIG1        0.0620
     14 C          -3.4121    3.3947    9.9870 C.3     1  LIG1        0.2182
     15 C          -2.7560    2.0316   10.0428 C.3     1  LIG1        0.1458
     16 H          -1.7978    2.1360   10.2697 H       1  LIG1        0.0670
     17 H          -3.1824    1.4894   10.7522 H       1  LIG1        0.0670
     18 O           1.3232    6.5501    7.1702 O.3     2  HOH2       -0.4105
     19 H           1.2151    6.2120    7.9638 H       0  HOH0        0.2052
     20 H           2.1042    6.5964    6.9734 H       0  HOH0        0.2052
     21 N           2.5527    7.4595   10.8052 N.4     3  LIG3        0.2207
     22 H           3.3451    7.4137   10.3616 H       3  LIG3        0.1997
     23 H           1.9082    7.0369   10.3205 H       3  LIG3        0.1997
     24 H           2.6354    7.0547   11.6167 H       3  LIG3        0.1997
     25 N          -1.0685    8.2276    6.9461 N.4     4  LIG4        0.2207
     26 H          -1.7232    7.8821    6.4172 H       4  LIG4        0.1997
     27 H          -1.1112    7.8439    7.7703 H       4  LIG4        0.1997
     28 H          -0.2556    8.0578    6.5744 H       4  LIG4        0.1997
     29 C           2.1736    8.8903   10.9988 C.3     3  LIG3       -0.0244
     30 H           2.0705    9.3180   10.1016 H       3  LIG3        0.0850
     31 C           0.8458    8.9832   11.7395 C.3     3  LIG3       -0.0098
     32 H           0.9102    8.4982   12.5998 H       3  LIG3        0.0320
     33 H           0.1328    8.5593   11.1996 H       3  LIG3        0.0320
     34 C           0.4908   10.4476   11.9997 C.3     3  LIG3       -0.0480
     35 H           0.3598   10.9143   11.1367 H       3  LIG3        0.0267
     36 H          -0.3586   10.4967   12.5067 H       3  LIG3        0.0267
     37 C           1.5968   11.1437   12.7917 C.3     3  LIG3       -0.0527
     38 H           1.3578   12.0956   12.9287 H       3  LIG3        0.0265
     39 H           1.6853   10.7182   13.6808 H       3  LIG3        0.0265
     40 C           2.9271   11.0538   12.0481 C.3     3  LIG3       -0.0480
     41 H           3.6395   11.4693   12.5962 H       3  LIG3        0.0267
     42 H           2.8638   11.5558   11.1971 H       3  LIG3        0.0267
     43 C           3.2929    9.6003   11.7536 C.3     3  LIG3       -0.0098
     44 H           4.1226    9.5726   11.2129 H       3  LIG3        0.0320
     45 H           3.4666    9.1271   12.6059 H       3  LIG3        0.0320
     46 C          -1.2579    9.7017    7.0714 C.3     4  LIG4       -0.0244
     47 H          -1.1956   10.1123    6.1621 H       4  LIG4        0.0850
     48 C          -2.6341    9.9924    7.6476 C.3     4  LIG4       -0.0098
     49 H          -2.7257    9.5471    8.5272 H       4  LIG4        0.0320
     50 H          -3.3296    9.6286    7.0448 H       4  LIG4        0.0320
     51 C          -2.8400   11.4986    7.8138 C.3     4  LIG4       -0.0480
     52 H          -2.8515   11.9275    6.9214 H       4  LIG4        0.0267
     53 H          -3.7170   11.6628    8.2431 H       4  LIG4        0.0267
     54 C          -1.7368   12.1297    8.6624 C.3     4  LIG4       -0.0527
     55 H          -1.8076   11.7977    9.5925 H       4  LIG4        0.0265
     56 H          -1.8561   13.1114    8.6784 H       4  LIG4        0.0265
     57 C          -0.3525   11.7952    8.1080 C.3     4  LIG4       -0.0480
     58 H          -0.2379   12.2330    7.2274 H       4  LIG4        0.0267
     59 H           0.3401   12.1516    8.7183 H       4  LIG4        0.0267
     60 C          -0.1611   10.2872    7.9526 C.3     4  LIG4       -0.0098
     61 H           0.7235   10.1047    7.5466 H       4  LIG4        0.0320
     62 H          -0.1856    9.8552    8.8428 H       4  LIG4        0.0320
@<TRIPOS>BOND
     1    47    46    1
     2    26    25    1
     3    28    25    1
     4    52    51    1
     5    25    46    1
     6    25    27    1
     7    20    18    1
     8    50    48    1
     9    46    48    1
    10    46    60    1
    11    18    19    1
    12    58    57    1
    13    61    60    1
    14    48    51    1
    15    48    49    1
    16    51    53    1
    17    51    54    1
    18    60    57    1
    19    60    62    1
    20    12    11    1
    21    57    54    1
    22    57    59    1
    23    54    56    1
    24    54    55    1
    25     2    15    1
    26    11    13    1
    27    11     5    1
    28    11    14    1
    29     5     1    1
    30     6     1    2
    31    10     9    1
    32     3     1    1
    33     9    14    1
    34     1     4    1
    35    14    15    1
    36    14     7    1
    37    15    16    1
    38    15    17    1
    39    30    29    1
    40    23    21    1
    41    22    21    1
    42    21    29    1
    43    21    24    1
    44    29    31    1
    45    29    43    1
    46    35    34    1
    47    42    40    1
    48    33    31    1
    49    44    43    1
    50     7     8    1
    51    31    34    1
    52    31    32    1
    53    43    40    1
    54    43    45    1
    55    34    36    1
    56    34    37    1
    57    40    41    1
    58    40    37    1
    59    37    38    1
    60    37    39    1
