@<TRIPOS>MOLECULE
?
 38 41 0 0 0
SMALL
GASTEIGER

@<TRIPOS>ATOM
      1 O           0.3019    9.0073   22.0281 O.2     1  LIG1       -0.2866
      2 O           0.0733   13.2571   18.7257 O.2     1  LIG1       -0.2866
      3 C           2.6695    8.9842   18.5712 C.ar    1  LIG1       -0.0539
      4 H           3.2033    8.2305   18.3480 H       1  LIG1        0.0624
      5 C           1.8606    8.9344   19.6910 C.ar    1  LIG1       -0.0497
      6 H           1.8564    8.1549   20.2355 H       1  LIG1        0.0625
      7 C           1.0527   10.0153   20.0288 C.ar    1  LIG1        0.0331
      8 C           0.2323    9.9597   21.2638 C.2     1  LIG1        0.1945
      9 C          -0.6651   11.1089   21.5541 C.ar    1  LIG1        0.0331
     10 C          -1.4579   11.0872   22.7043 C.ar    1  LIG1       -0.0502
     11 H          -1.4088   10.3477   23.2991 H       1  LIG1        0.0625
     12 C          -2.3096   12.1330   22.9800 C.ar    1  LIG1       -0.0610
     13 H          -2.8381   12.1171   23.7686 H       1  LIG1        0.0618
     14 C          -2.4010   13.2166   22.1062 C.ar    1  LIG1       -0.0610
     15 H          -3.0028   13.9281   22.2931 H       1  LIG1        0.0618
     16 C          -1.6121   13.2558   20.9649 C.ar    1  LIG1       -0.0502
     17 H          -1.6697   13.9972   20.3744 H       1  LIG1        0.0625
     18 C          -0.7380   12.2128   20.6834 C.ar    1  LIG1        0.0331
     19 C           0.1290   12.2846   19.4719 C.2     1  LIG1        0.1945
     20 C           1.0413   11.1485   19.1967 C.ar    1  LIG1        0.0336
     21 C           1.8821   11.1977   18.0833 C.ar    1  LIG1       -0.0431
     22 H           1.8854   11.9750   17.5360 H       1  LIG1        0.0631
     23 C           2.7162   10.1299   17.7583 C.ar    1  LIG1       -0.0243
     24 C           3.6532   10.1699   16.6289 C.2     1  LIG1       -0.0540
     25 H           3.9898    9.3406   16.3096 H       1  LIG1        0.0624
     26 C           4.0684   11.2788   16.0169 C.2     1  LIG1       -0.0540
     27 H           3.6737   12.0962   16.3000 H       1  LIG1        0.0624
     28 C           5.0744   11.3654   14.9505 C.ar    1  LIG1       -0.0250
     29 C           5.6709   12.6050   14.6889 C.ar    1  LIG1       -0.0546
     30 H           5.3948   13.3692   15.1814 H       1  LIG1        0.0623
     31 C           6.6627   12.7344   13.7196 C.ar    1  LIG1       -0.0612
     32 H           7.0693   13.5789   13.5646 H       1  LIG1        0.0618
     33 C           7.0559   11.6315   12.9818 C.ar    1  LIG1       -0.0617
     34 H           7.7292   11.7171   12.3166 H       1  LIG1        0.0618
     35 C           6.4613   10.4002   13.2199 C.ar    1  LIG1       -0.0612
     36 H           6.7251    9.6428   12.7095 H       1  LIG1        0.0618
     37 C           5.4834   10.2661   14.1962 C.ar    1  LIG1       -0.0546
     38 H           5.0882    9.4161   14.3526 H       1  LIG1        0.0623
@<TRIPOS>BOND
     1    34    33    1
     2    36    35    1
     3    33    35   ar
     4    33    31   ar
     5    35    37   ar
     6    32    31    1
     7    31    29   ar
     8    37    38    1
     9    37    28   ar
    10    29    28   ar
    11    29    30    1
    12    28    26    1
    13    26    27    1
    14    26    24    2
    15    25    24    1
    16    24    23    1
    17    22    21    1
    18    23    21   ar
    19    23     3   ar
    20    21    20   ar
    21     4     3    1
    22     3     5   ar
    23     2    19    2
    24    20    19    1
    25    20     7   ar
    26    19    18    1
    27     5     7   ar
    28     5     6    1
    29     7     8    1
    30    17    16    1
    31    18    16   ar
    32    18     9   ar
    33    16    14   ar
    34     8     9    1
    35     8     1    2
    36     9    10   ar
    37    14    15    1
    38    14    12   ar
    39    10    12   ar
    40    10    11    1
    41    12    13    1
