@<TRIPOS>MOLECULE
?
 48 48 0 0 0
SMALL
GASTEIGER

@<TRIPOS>ATOM
      1 H           6.6194    6.6861   -1.7406 H       1  LIG1        0.0691
      2 H           3.3580    9.0871   -1.0406 H       1  LIG1        0.0657
      3 H           3.4657    6.6963   -4.3840 H       1  LIG1        0.0657
      4 H           7.4238    2.8789   -2.3529 H       2  LIG2        0.0830
      5 H           1.4664    8.0065   -3.8553 H       1  LIG1        0.0278
      6 H          12.8848    5.1120   -1.3896 H       2  LIG2        0.0639
      7 H           9.4302    2.0827   -1.5390 H       2  LIG2        0.0639
      8 H          14.9480    4.2627   -0.7199 H       2  LIG2        0.0830
      9 H           6.5213    5.3308   -3.5628 H       1  LIG1        0.2921
     10 H           5.3377    7.3713    5.7986 H       3  LIG3        0.0639
     11 H           6.3949    7.9718    0.1358 H       1  LIG1        0.2921
     12 H           8.9827    6.4137   -3.0560 H       2  LIG2        0.0830
     13 H           6.3002    5.3243    6.4777 H       3  LIG3        0.0618
     14 H           1.6642    9.8880    4.2732 H       3  LIG3        0.0597
     15 H           1.3353    8.7628   -2.4762 H       1  LIG1        0.0278
     16 H          11.0757    5.7540   -2.3372 H       2  LIG2        0.0639
     17 H           2.0373    9.4084   -3.6986 H       1  LIG1        0.0278
     18 H          11.4024    1.3530   -1.1911 H       2  LIG2        0.0639
     19 H          -0.7306   10.0197    3.8031 H       3  LIG3        0.0355
     20 H          13.4731    0.6195   -0.5433 H       2  LIG2        0.0830
     21 O           5.6107    8.3817   -0.0440 O.3     1  LIG1       -0.5066
     22 O           5.7449    5.6460   -3.9891 O.3     1  LIG1       -0.5066
     23 C           5.7343    7.0018   -2.0077 C.ar    1  LIG1        0.0213
     24 N           8.0371    4.7006   -2.7714 N.ar    2  LIG2       -0.2632
     25 C           3.8789    7.0324   -3.5664 C.ar    1  LIG1       -0.0170
     26 C          11.8611    3.3222   -1.3696 C.ar    2  LIG2       -0.0149
     27 C           5.0693    7.9262   -1.2131 C.ar    1  LIG1        0.1206
     28 C           3.2356    7.9824   -2.7794 C.ar    1  LIG1       -0.0436
     29 C           3.8218    8.4217   -1.5943 C.ar    1  LIG1       -0.0170
     30 C          10.5327    3.8033   -1.8366 C.ar    2  LIG2       -0.0149
     31 N          14.3872    2.3671   -0.5651 N.ar    2  LIG2       -0.2632
     32 C           5.1357    6.5533   -3.1806 C.ar    1  LIG1        0.1206
     33 C           1.9127    8.5740   -3.2158 C.3     1  LIG1       -0.0395
     34 C          12.9534    4.1643   -1.2347 C.ar    2  LIG2       -0.0359
     35 C          14.1756    3.6509   -0.8382 C.ar    2  LIG2        0.0281
     36 C           8.2096    3.4617   -2.3210 C.ar    2  LIG2        0.0281
     37 C           9.4180    2.9793   -1.8467 C.ar    2  LIG2       -0.0359
     38 C           9.1047    5.4953   -2.7494 C.ar    2  LIG2        0.0281
     39 C          10.3542    5.1037   -2.2972 C.ar    2  LIG2       -0.0359
     40 C          12.0756    1.9870   -1.0876 C.ar    2  LIG2       -0.0359
     41 C          13.3325    1.5695   -0.7021 C.ar    2  LIG2        0.0281
     42 N           2.9476    7.8453    5.1007 N.2     3  LIG3       -0.2439
     43 C           4.8155    6.5574    5.8717 C.2     3  LIG3       -0.0342
     44 C           3.4364    6.6686    5.5307 C.2     3  LIG3        0.0899
     45 C           1.6352    7.8758    4.7983 C.2     3  LIG3        0.0860
     46 C           1.0530    9.0966    4.3504 C.2     3  LIG3       -0.0523
     47 C           5.3315    5.3754    6.2750 C.2     3  LIG3       -0.0596
     48 C          -0.2700    9.1562    4.0622 C.3     3  LIG3       -0.0068
@<TRIPOS>BOND
     1     3    25    1
     2    22     9    1
     3    22    32    1
     4     5    33    1
     5    17    33    1
     6    25    32   ar
     7    25    28   ar
     8    33    28    1
     9    33    15    1
    10    32    23   ar
    11    12    38    1
    12    28    29   ar
    13    24    38   ar
    14    24    36   ar
    15    38    39   ar
    16     4    36    1
    17    16    39    1
    18    36    37   ar
    19    39    30   ar
    20    23     1    1
    21    23    27   ar
    22    37    30   ar
    23    37     7    1
    24    30    26    1
    25    29    27   ar
    26    29     2    1
    27     6    34    1
    28    26    34   ar
    29    26    40   ar
    30    34    35   ar
    31    27    21    1
    32    18    40    1
    33    40    41   ar
    34    35     8    1
    35    35    31   ar
    36    41    31   ar
    37    41    20    1
    38    21    11    1
    39    19    48    1
    40    48    46    1
    41    14    46    1
    42    46    45    2
    43    45    42    1
    44    42    44    2
    45    44    43    1
    46    10    43    1
    47    43    47    2
    48    47    13    1
