@<TRIPOS>MOLECULE
?
 62 64 0 0 0
SMALL
GASTEIGER

@<TRIPOS>ATOM
      1 N           2.1083   12.7417    5.6538 N.pl3   1  LIG1       -0.1115
      2 N           2.7067   12.2179    4.5262 N.2     1  LIG1       -0.1701
      3 N           4.8877   11.9058    3.0581 N.pl3   1  LIG1       -0.2228
      4 H           4.7108   11.8787    3.9193 H       1  LIG1        0.1730
      5 N           4.7498   18.3091    1.5461 N.pl3   1  LIG1        0.0564
      6 O           2.5115   13.5390    7.9464 O.2     1  LIG1       -0.1485
      7 O           4.2782   13.8086    6.2126 O.2     1  LIG1       -0.1485
      8 O           7.1899   12.5896    3.6219 O.2     1  LIG1       -0.1500
      9 O           6.5786   12.0530    1.2724 O.2     1  LIG1       -0.1500
     10 O           5.4870   19.1875    1.9684 O.2     1  LIG1       -0.1261
     11 O           3.7285   18.5219    0.9141 O.2     1  LIG1       -0.1261
     12 S           3.2518   13.0318    6.8342 S.O2    1  LIG1        0.0897
     13 S           6.2587   12.6309    2.5447 S.O2    1  LIG1        0.0719
     14 C           0.7272   12.3794    6.0294 C.3     1  LIG1        0.1142
     15 H           0.1200   12.5975    5.2783 H       1  LIG1        0.0636
     16 H           0.4521   12.9228    6.8099 H       1  LIG1        0.0636
     17 C           0.5863   10.9454    6.3647 C.1     1  LIG1       -0.0799
     18 C           0.5718    9.8018    6.6558 C.1     1  LIG1       -0.1039
     19 C           0.6123    8.3826    7.0532 C.3     1  LIG1       -0.0025
     20 H           1.4214    8.2142    7.5792 H       1  LIG1        0.0362
     21 H           0.6217    7.8198    6.2515 H       1  LIG1        0.0362
     22 H          -0.1781    8.1718    7.5919 H       1  LIG1        0.0362
     23 C           2.0059   11.6696    3.6002 C.2     1  LIG1        0.0561
     24 H           1.0631   11.5912    3.6946 H       1  LIG1        0.0852
     25 C           2.6720   11.1664    2.3961 C.2     1  LIG1        0.0168
     26 C           3.9898   11.3275    2.1576 C.2     1  LIG1        0.0209
     27 H           4.3286   11.0273    1.3219 H       1  LIG1        0.0802
     28 C           1.8533   10.4499    1.3833 C.ar    1  LIG1       -0.0152
     29 C           2.3052    9.2599    0.8037 C.ar    1  LIG1       -0.0539
     30 H           3.1299    8.8856    1.0879 H       1  LIG1        0.0624
     31 C           1.5670    8.6164   -0.1805 C.ar    1  LIG1       -0.0612
     32 H           1.8886    7.8106   -0.5665 H       1  LIG1        0.0618
     33 C           0.3624    9.1523   -0.5966 C.ar    1  LIG1       -0.0617
     34 H          -0.1450    8.7175   -1.2721 H       1  LIG1        0.0618
     35 C          -0.1019   10.3294   -0.0243 C.ar    1  LIG1       -0.0612
     36 H          -0.9277   10.7011   -0.3151 H       1  LIG1        0.0618
     37 C           0.6280   10.9700    0.9691 C.ar    1  LIG1       -0.0539
     38 H           0.2912   11.7629    1.3671 H       1  LIG1        0.0624
     39 C           3.9755   11.4881    7.2716 C.ar    1  LIG1        0.1102
     40 C           3.4136   10.7147    8.2917 C.ar    1  LIG1       -0.0348
     41 H           2.6396   11.0156    8.7516 H       1  LIG1        0.0637
     42 C           3.9964    9.5070    8.6207 C.ar    1  LIG1       -0.0570
     43 H           3.6167    8.9827    9.3170 H       1  LIG1        0.0621
     44 C           5.1191    9.0434    7.9615 C.ar    1  LIG1       -0.0503
     45 C           5.6827    9.8258    6.9559 C.ar    1  LIG1       -0.0570
     46 H           6.4625    9.5230    6.5075 H       1  LIG1        0.0621
     47 C           5.1166   11.0479    6.6008 C.ar    1  LIG1       -0.0348
     48 H           5.5027   11.5752    5.9109 H       1  LIG1        0.0637
     49 C           5.7435    7.7051    8.3195 C.3     1  LIG1       -0.0397
     50 H           5.7559    7.5999    9.2938 H       1  LIG1        0.0278
     51 H           6.6601    7.6696    7.9754 H       1  LIG1        0.0278
     52 H           5.2165    6.9822    7.9198 H       1  LIG1        0.0278
     53 C           5.8045   14.3152    2.2797 C.ar    1  LIG1        0.1086
     54 C           4.8238   14.5978    1.3334 C.ar    1  LIG1       -0.0329
     55 H           4.4099   13.8942    0.8457 H       1  LIG1        0.0638
     56 C           4.4599   15.9094    1.1099 C.ar    1  LIG1       -0.0296
     57 H           3.7783   16.1267    0.4854 H       1  LIG1        0.0641
     58 C           5.1106   16.8976    1.8178 C.ar    1  LIG1        0.1263
     59 C           6.0734   16.6502    2.7434 C.ar    1  LIG1       -0.0296
     60 H           6.4985   17.3640    3.2022 H       1  LIG1        0.0641
     61 C           6.4286   15.3243    3.0053 C.ar    1  LIG1       -0.0329
     62 H           7.0806   15.1163    3.6645 H       1  LIG1        0.0638
@<TRIPOS>BOND
     1    34    33    1
     2    33    31   ar
     3    33    35   ar
     4    32    31    1
     5    36    35    1
     6    31    29   ar
     7    35    37   ar
     8    57    56    1
     9    29    30    1
    10    29    28   ar
    11    55    54    1
    12    11     5    2
    13    37    38    1
    14    37    28   ar
    15    56    54   ar
    16    56    58   ar
    17     9    13    2
    18    27    26    1
    19    54    53   ar
    20    28    25    1
    21     5    58    1
    22     5    10    2
    23    58    59   ar
    24    26    25    2
    25    26     3    1
    26    53    13    1
    27    53    61   ar
    28    25    23    1
    29    13     3    1
    30    13     8    2
    31    59    61   ar
    32    59    60    1
    33    61    62    1
    34     3     4    1
    35    23    24    1
    36    23     2    2
    37     2     1    1
    38    15    14    1
    39     1    14    1
    40     1    12    1
    41    48    47    1
    42    14    17    1
    43    14    16    1
    44     7    12    2
    45    21    19    1
    46    17    18    3
    47    46    45    1
    48    47    45   ar
    49    47    39   ar
    50    18    19    1
    51    12    39    1
    52    12     6    2
    53    45    44   ar
    54    19    20    1
    55    19    22    1
    56    39    40   ar
    57    52    49    1
    58    44    49    1
    59    44    42   ar
    60    51    49    1
    61    40    42   ar
    62    40    41    1
    63    49    50    1
    64    42    43    1
