@<TRIPOS>MOLECULE
?
 34 34 0 0 0
SMALL
GASTEIGER

@<TRIPOS>ATOM
      1 N           4.6538    1.6429    3.0581 N.ar    1  LIG1       -0.2632
      2 C           4.0760    0.3416    0.6405 C.ar    1  LIG1       -0.0149
      3 C           4.6912   -0.3216    1.6919 C.ar    1  LIG1       -0.0359
      4 H           4.9316   -1.2361    1.6024 H       1  LIG1        0.0639
      5 C           3.7776    1.6904    0.8391 C.ar    1  LIG1       -0.0359
      6 H           3.3630    2.1968    0.1499 H       1  LIG1        0.0639
      7 C           4.0905    2.2839    2.0499 C.ar    1  LIG1        0.0281
      8 H           3.8894    3.2050    2.1621 H       1  LIG1        0.0830
      9 C           4.9535    0.3524    2.8702 C.ar    1  LIG1        0.0281
     10 H           5.3658   -0.1234    3.5812 H       1  LIG1        0.0830
     11 O           1.0749    6.5908    0.5305 O.3     2  LIG2       -0.5064
     12 H           0.6944    6.8220   -0.2216 H       2  LIG2        0.2921
     13 O          -0.5302    4.5502    4.4798 O.3     2  LIG2       -0.5064
     14 H          -1.2080    4.1145    4.7749 H       2  LIG2        0.2921
     15 C          -0.0016    6.2108    1.2958 C.ar    2  LIG2        0.1232
     16 C          -0.8233    5.1825    3.2968 C.ar    2  LIG2        0.1232
     17 C          -1.3120    6.4552    0.8845 C.ar    2  LIG2       -0.0197
     18 H          -1.4823    6.8752    0.0497 H       2  LIG2        0.0654
     19 C           0.2687    5.5753    2.5142 C.ar    2  LIG2        0.0323
     20 C          -2.1357    5.4447    2.9204 C.ar    2  LIG2       -0.0197
     21 H          -2.8600    5.1948    3.4818 H       2  LIG2        0.0654
     22 C          -2.3669    6.0793    1.7082 C.ar    2  LIG2       -0.0548
     23 H          -3.2593    6.2600    1.4372 H       2  LIG2        0.0620
     24 C           1.6810    5.3380    2.9731 C.3     2  LIG2       -0.0328
     25 H           1.7316    5.4474    3.9460 H       2  LIG2        0.0280
     26 H           2.2779    5.9828    2.5402 H       2  LIG2        0.0280
     27 H           1.9541    4.4278    2.7331 H       2  LIG2        0.0280
     28 S          -0.0914    1.8831    1.1183 S.2     3  LIG3       -0.0955
     29 C           0.1782    0.2368    0.6694 C.ar    3  LIG3        0.0342
     30 C           0.7279   -0.4920    1.7228 C.ar    3  LIG3       -0.0015
     31 C           0.4875    1.6270    2.6883 C.ar    3  LIG3       -0.0231
     32 H           0.5234    2.2993    3.3596 H       3  LIG3        0.0694
     33 C           0.8917    0.3440    2.8707 C.ar    3  LIG3       -0.0463
     34 H           1.2537    0.0285    3.6910 H       3  LIG3        0.0629
@<TRIPOS>BOND
     1    12    11    1
     2    18    17    1
     3     6     5    1
     4    11    15    1
     5     2     5   ar
     6     2     3   ar
     7    29    28   ar
     8    29    30   ar
     9     5     7   ar
    10    17    15   ar
    11    17    22   ar
    12    28    31   ar
    13    15    19   ar
    14    23    22    1
    15     4     3    1
    16     3     9   ar
    17    22    20   ar
    18    30    33   ar
    19     7     8    1
    20     7     1   ar
    21    19    24    1
    22    19    16   ar
    23    26    24    1
    24    31    33   ar
    25    31    32    1
    26    27    24    1
    27     9     1   ar
    28     9    10    1
    29    33    34    1
    30    20    16   ar
    31    20    21    1
    32    24    25    1
    33    16    13    1
    34    13    14    1
