@<TRIPOS>MOLECULE
?
 50 52 0 0 0
SMALL
GASTEIGER

@<TRIPOS>ATOM
      1 BR          1.6792    5.1866    8.2884 Br      1  LIG1       -0.0792
      2 BR          3.2623    4.5536    3.1903 Br      2  LIG2       -0.0792
      3 O           2.4214    6.9348    5.8931 O.3     1  LIG1       -0.4599
      4 O           2.0018    7.8272    3.9118 O.2     1  LIG1       -0.2508
      5 O           3.9110    2.9442    0.6445 O.3     2  LIG2       -0.4599
      6 O           3.3895    1.6508   -1.0798 O.2     2  LIG2       -0.2508
      7 C           3.4565    5.4274    7.4485 C.3     1  LIG1        0.0767
      8 H           3.5538    4.7514    6.7314 H       1  LIG1        0.0503
      9 C           3.5296    6.7878    6.8268 C.3     1  LIG1        0.1199
     10 H           3.4694    7.4816    7.5304 H       1  LIG1        0.0748
     11 C           2.8154    7.5568    4.7605 C.2     1  LIG1        0.3075
     12 C           4.2661    7.8202    4.7895 C.3     1  LIG1        0.0483
     13 H           4.4434    8.7761    4.9107 H       1  LIG1        0.0379
     14 H           4.6904    7.5204    3.9584 H       1  LIG1        0.0379
     15 C           4.7768    7.0253    5.9698 C.3     1  LIG1       -0.0042
     16 H           5.4519    7.5333    6.4672 H       1  LIG1        0.0306
     17 H           5.1691    6.1764    5.6765 H       1  LIG1        0.0306
     18 C           4.5376    5.1899    8.4723 C.ar    1  LIG1       -0.0304
     19 C           5.3769    4.1082    8.3086 C.ar    1  LIG1       -0.0574
     20 H           5.2532    3.5180    7.5874 H       1  LIG1        0.0621
     21 C           6.3984    3.8954    9.2122 C.ar    1  LIG1       -0.0615
     22 H           6.9660    3.1546    9.1044 H       1  LIG1        0.0618
     23 C           6.5960    4.7490   10.2629 C.ar    1  LIG1       -0.0617
     24 H           7.2972    4.5950   10.8691 H       1  LIG1        0.0618
     25 C           5.7667    5.8319   10.4287 C.ar    1  LIG1       -0.0615
     26 H           5.8985    6.4233   11.1489 H       1  LIG1        0.0618
     27 C           4.7456    6.0459    9.5386 C.ar    1  LIG1       -0.0574
     28 H           4.1770    6.7855    9.6557 H       1  LIG1        0.0621
     29 C           4.9156    3.5309    2.7564 C.3     2  LIG2        0.0767
     30 H           4.7911    2.5997    3.0704 H       2  LIG2        0.0503
     31 C           5.1155    3.4956    1.2497 C.3     2  LIG2        0.1199
     32 H           5.2759    4.4104    0.9088 H       2  LIG2        0.0748
     33 C           4.2421    2.1152   -0.3803 C.2     2  LIG2        0.3075
     34 C           5.7219    1.9224   -0.4331 C.3     2  LIG2        0.0483
     35 H           6.0998    2.3481   -1.2311 H       2  LIG2        0.0379
     36 H           5.9477    0.9689   -0.4456 H       2  LIG2        0.0379
     37 C           6.2467    2.5820    0.8280 C.3     2  LIG2       -0.0042
     38 H           6.4374    1.9154    1.5202 H       2  LIG2        0.0306
     39 H           7.0623    3.0935    0.6435 H       2  LIG2        0.0306
     40 C           6.0726    4.1282    3.5160 C.ar    2  LIG2       -0.0304
     41 C           6.7298    5.2593    3.0756 C.ar    2  LIG2       -0.0574
     42 H           6.4681    5.6708    2.2725 H       2  LIG2        0.0621
     43 C           7.7779    5.7908    3.8185 C.ar    2  LIG2       -0.0615
     44 H           8.2292    6.5574    3.5149 H       2  LIG2        0.0618
     45 C           8.1568    5.1852    5.0071 C.ar    2  LIG2       -0.0617
     46 H           8.8715    5.5321    5.5097 H       2  LIG2        0.0618
     47 C           7.4883    4.0906    5.4382 C.ar    2  LIG2       -0.0615
     48 H           7.7277    3.6979    6.2579 H       2  LIG2        0.0618
     49 C           6.4634    3.5368    4.7025 C.ar    2  LIG2       -0.0574
     50 H           6.0314    2.7596    5.0061 H       2  LIG2        0.0621
@<TRIPOS>BOND
     1    35    34    1
     2     6    33    2
     3    36    34    1
     4    34    33    1
     5    34    37    1
     6    33     5    1
     7    39    37    1
     8     5    31    1
     9    37    31    1
    10    37    38    1
    11    32    31    1
    12    31    29    1
    13    42    41    1
    14    29    30    1
    15    29     2    1
    16    29    40    1
    17    41    40   ar
    18    41    43   ar
    19    44    43    1
    20    40    49   ar
    21    43    45   ar
    22     4    11    2
    23    14    12    1
    24    49    50    1
    25    49    47   ar
    26    11    12    1
    27    11     3    1
    28    12    13    1
    29    12    15    1
    30    45    47   ar
    31    45    46    1
    32    47    48    1
    33    17    15    1
    34     3     9    1
    35    15    16    1
    36    15     9    1
    37     8     7    1
    38     9     7    1
    39     9    10    1
    40     7     1    1
    41     7    18    1
    42    20    19    1
    43    19    18   ar
    44    19    21   ar
    45    18    27   ar
    46    22    21    1
    47    21    23   ar
    48    27    28    1
    49    27    25   ar
    50    23    25   ar
    51    23    24    1
    52    25    26    1
