@<TRIPOS>MOLECULE
?
 51 54 0 0 0
SMALL
GASTEIGER

@<TRIPOS>ATOM
      1 CL          3.6534    1.2406    9.6376 Cl      1  LIG1       -0.0835
      2 O          -5.1586    1.3756    9.5265 O.2     1  LIG1       -0.2483
      3 O          -4.8574    3.5303   10.1088 O.3     1  LIG1       -0.4664
      4 O          -0.4415    4.2731   11.3565 O.3     1  LIG1       -0.4646
      5 O          -0.5491    2.1316   12.0567 O.2     1  LIG1       -0.2504
      6 O          -3.3812    2.9746    7.6145 O.2     1  LIG1       -0.2744
      7 N          -2.7470    0.6374   10.6383 N.3     1  LIG1       -0.2959
      8 H          -2.8223   -0.0599   11.1699 H       1  LIG1        0.1233
      9 N          -1.1726    3.4410    7.1581 N.am    1  LIG1       -0.2844
     10 H          -1.2867    3.9852    6.4764 H       1  LIG1        0.1548
     11 C           2.4367    2.7829    7.7671 C.ar    1  LIG1       -0.0416
     12 H           3.3115    2.9752    7.4516 H       1  LIG1        0.0633
     13 C           2.2593    1.9457    8.8600 C.ar    1  LIG1        0.0414
     14 C           0.9967    1.6497    9.3827 C.ar    1  LIG1       -0.0374
     15 H           0.8945    1.0664   10.1261 H       1  LIG1        0.0636
     16 C          -0.0997    2.2399    8.7757 C.ar    1  LIG1       -0.0078
     17 C          -1.5794    2.1368    9.0791 C.3     1  LIG1        0.1016
     18 C          -2.0801    2.9188   10.3511 C.3     1  LIG1        0.1082
     19 H          -2.4321    3.8217   10.1028 H       1  LIG1        0.0455
     20 C          -3.2208    2.0009   10.8871 C.3     1  LIG1        0.1569
     21 C          -3.6025    2.2163   12.3530 C.ar    1  LIG1       -0.0158
     22 C          -3.3600    3.4284   13.0003 C.ar    1  LIG1       -0.0563
     23 H          -2.9292    4.1360   12.5359 H       1  LIG1        0.0621
     24 C          -3.7488    3.6034   14.3283 C.ar    1  LIG1       -0.0614
     25 H          -3.5600    4.4205   14.7743 H       1  LIG1        0.0618
     26 C          -4.4132    2.5837   15.0011 C.ar    1  LIG1       -0.0617
     27 H          -4.6767    2.7046   15.9058 H       1  LIG1        0.0618
     28 C           1.3279    3.3397    7.1342 C.ar    1  LIG1       -0.0388
     29 H           1.4259    3.8982    6.3722 H       1  LIG1        0.0637
     30 C           0.0752    3.0512    7.6550 C.ar    1  LIG1        0.0377
     31 C          -2.1193    0.6858    9.3105 C.3     1  LIG1        0.0161
     32 H          -2.7818    0.4549    8.6119 H       1  LIG1        0.0438
     33 H          -1.3749    0.0345    9.2620 H       1  LIG1        0.0438
     34 C          -4.2769    1.2000   13.0272 C.ar    1  LIG1       -0.0563
     35 H          -4.4561    0.3766   12.5880 H       1  LIG1        0.0621
     36 C          -4.6914    1.3889   14.3505 C.ar    1  LIG1       -0.0614
     37 H          -5.1632    0.7002   14.8031 H       1  LIG1        0.0618
     38 C          -4.5216    2.2387   10.0762 C.2     1  LIG1        0.3327
     39 C          -5.9919    3.8948    9.2899 C.3     1  LIG1        0.0817
     40 H          -5.8489    3.5781    8.3733 H       1  LIG1        0.0661
     41 H          -6.0935    4.8696    9.2867 H       1  LIG1        0.0661
     42 H          -6.8037    3.4836    9.6543 H       1  LIG1        0.0661
     43 C          -0.9474    3.0328   11.3585 C.2     1  LIG1        0.3143
     44 C           0.6071    4.5512   12.3450 C.3     1  LIG1        0.0897
     45 H           0.3480    4.1504   13.2121 H       1  LIG1        0.0694
     46 H           0.6792    5.5301   12.4728 H       1  LIG1        0.0694
     47 C           1.9530    4.0094   11.9372 C.3     1  LIG1       -0.0306
     48 H           1.9260    3.0299   11.9393 H       1  LIG1        0.0262
     49 H           2.6345    4.3186   12.5702 H       1  LIG1        0.0262
     50 H           2.1748    4.3278   11.0368 H       1  LIG1        0.0262
     51 C          -2.1915    2.8716    7.8639 C.2     1  LIG1        0.2299
@<TRIPOS>BOND
     1    29    28    1
     2    10     9    1
     3    28    30   ar
     4    28    11   ar
     5     9    30    1
     6     9    51   am
     7    12    11    1
     8     6    51    2
     9    30    16   ar
    10    11    13   ar
    11    51    17    1
    12    40    39    1
    13    32    31    1
    14    16    17    1
    15    16    14   ar
    16    13    14   ar
    17    13     1    1
    18    17    31    1
    19    17    18    1
    20    33    31    1
    21    41    39    1
    22    39    42    1
    23    39     3    1
    24    31     7    1
    25    14    15    1
    26     2    38    2
    27    38     3    1
    28    38    20    1
    29    19    18    1
    30    18    20    1
    31    18    43    1
    32     7    20    1
    33     7     8    1
    34    20    21    1
    35    50    47    1
    36     4    43    1
    37     4    44    1
    38    43     5    2
    39    47    48    1
    40    47    44    1
    41    47    49    1
    42    44    46    1
    43    44    45    1
    44    21    22   ar
    45    21    34   ar
    46    23    22    1
    47    35    34    1
    48    22    24   ar
    49    34    36   ar
    50    24    25    1
    51    24    26   ar
    52    36    37    1
    53    36    26   ar
    54    26    27    1
