@<TRIPOS>MOLECULE
?
 42 42 0 0 0
SMALL
GASTEIGER

@<TRIPOS>ATOM
      1 C           3.4694    5.0142    6.3036 C.3     1  LIG1        0.0518
      2 C           2.7305    6.0004    5.4519 C.2     1  LIG1       -0.0670
      3 H           3.1539    6.2300    4.6563 H       1  LIG1        0.0588
      4 C           1.5790    6.5869    5.6585 C.2     1  LIG1       -0.0862
      5 H           1.3668    7.2659    5.0605 H       1  LIG1        0.0570
      6 C           0.5719    6.3270    6.7027 C.3     1  LIG1       -0.0347
      7 H          -0.2980    6.6162    6.3827 H       1  LIG1        0.0307
      8 H           0.7867    6.8521    7.4894 H       1  LIG1        0.0307
      9 C           0.4969    4.9030    7.0788 C.3     1  LIG1       -0.0495
     10 H           0.5154    4.3690    6.2679 H       1  LIG1        0.0268
     11 H          -0.3551    4.7428    7.5136 H       1  LIG1        0.0268
     12 C           1.6289    4.4126    8.0172 C.3     1  LIG1       -0.0508
     13 H           1.3745    4.6075    8.9327 H       1  LIG1        0.0266
     14 H           1.7013    3.4487    7.9331 H       1  LIG1        0.0266
     15 C           2.9875    5.0196    7.7584 C.3     1  LIG1       -0.0300
     16 H           3.6390    4.5425    8.2952 H       1  LIG1        0.0286
     17 H           2.9741    5.9381    8.0682 H       1  LIG1        0.0286
     18 C           4.9930    5.3658    6.2207 C.3     1  LIG1       -0.0123
     19 H           5.4924    4.7250    6.7499 H       1  LIG1        0.0328
     20 H           5.2843    5.2795    5.2989 H       1  LIG1        0.0328
     21 C           5.3121    6.7337    6.6976 C.2     1  LIG1       -0.0890
     22 H           4.6035    7.3220    6.5675 H       1  LIG1        0.0567
     23 C           6.1666    7.2223    7.1604 C.2     1  LIG1       -0.1026
     24 H           6.9384    6.7364    7.3415 H       1  LIG1        0.0532
     25 H           6.1245    8.1266    7.3759 H       1  LIG1        0.0532
     26 N           3.3148    3.6285    5.8140 N.3     1  LIG1       -0.2378
     27 H           3.8076    3.1239    6.1583 H       1  LIG1        0.1374
     28 S           3.2376    3.3799    4.1897 S.3     1  LIG1        0.0321
     29 O           4.5850    3.3847    3.5611 O.3     1  LIG1       -0.1455
     30 C           2.7403    1.6189    4.2062 C.3     1  LIG1        0.0399
     31 C           2.6314    1.2291    2.7374 C.3     1  LIG1       -0.0484
     32 H           3.4808    1.3546    2.3090 H       1  LIG1        0.0244
     33 H           1.9731    1.7800    2.3077 H       1  LIG1        0.0244
     34 H           2.3709    0.3079    2.6686 H       1  LIG1        0.0244
     35 C           3.7726    0.7565    4.9164 C.3     1  LIG1       -0.0484
     36 H           3.5208   -0.1673    4.8463 H       1  LIG1        0.0244
     37 H           3.8173    1.0066    5.8421 H       1  LIG1        0.0244
     38 H           4.6323    0.8855    4.5097 H       1  LIG1        0.0244
     39 C           1.3678    1.5450    4.8680 C.3     1  LIG1       -0.0484
     40 H           0.8031    2.2366    4.5135 H       1  LIG1        0.0244
     41 H           1.4619    1.6652    5.8166 H       1  LIG1        0.0244
     42 H           0.9727    0.6880    4.6920 H       1  LIG1        0.0244
@<TRIPOS>BOND
     1    33    31    1
     2    32    31    1
     3    34    31    1
     4    31    30    1
     5    29    28    1
     6    28    30    1
     7    28    26    1
     8    30    39    1
     9    30    35    1
    10    38    35    1
    11    40    39    1
    12     3     2    1
    13    42    39    1
    14    36    35    1
    15    39    41    1
    16    35    37    1
    17     5     4    1
    18    20    18    1
    19     2     4    2
    20     2     1    1
    21     4     6    1
    22    26    27    1
    23    26     1    1
    24    18     1    1
    25    18    21    1
    26    18    19    1
    27    10     9    1
    28     1    15    1
    29     7     6    1
    30    22    21    1
    31    21    23    2
    32     6     9    1
    33     6     8    1
    34     9    11    1
    35     9    12    1
    36    23    24    1
    37    23    25    1
    38    15    12    1
    39    15    17    1
    40    15    16    1
    41    14    12    1
    42    12    13    1
