@<TRIPOS>MOLECULE
?
 61 64 0 0 0
SMALL
GASTEIGER

@<TRIPOS>ATOM
      1 O          10.4609    9.2538   -1.6090 O.2     1  LIG1       -0.2756
      2 C           9.5374   10.0869   -1.7086 C.2     1  LIG1        0.2154
      3 N           9.5454   11.0835   -2.5993 N.am    1  LIG1       -0.3045
      4 C           8.3441   11.9066   -2.6105 C.3     1  LIG1        0.0148
      5 H           7.8438   11.7911   -3.4566 H       1  LIG1        0.0464
      6 H           8.5689   12.8637   -2.4983 H       1  LIG1        0.0464
      7 C           7.5269   11.3872   -1.4123 C.3     1  LIG1       -0.0289
      8 H           7.4656   12.0806   -0.7073 H       1  LIG1        0.0285
      9 H           6.6106   11.1424   -1.6974 H       1  LIG1        0.0285
     10 C           8.2726   10.1588   -0.8919 C.3     1  LIG1        0.0256
     11 H           8.4827   10.2592    0.0697 H       1  LIG1        0.0359
     12 H           7.7289    9.3406   -1.0161 H       1  LIG1        0.0359
     13 C          10.6023   11.2978   -3.5628 C.3     1  LIG1        0.0031
     14 H          10.2571   11.1435   -4.4667 H       1  LIG1        0.0428
     15 H          11.3380   10.6758   -3.3849 H       1  LIG1        0.0428
     16 H          10.9286   12.2190   -3.4905 H       1  LIG1        0.0428
     17 O           7.3675    1.4027    5.5021 O.3     2  LIG2       -0.5056
     18 H           7.3148    0.7577    6.1601 H       2  LIG2        0.2922
     19 C           7.8015    2.5088    6.1613 C.ar    2  LIG2        0.1349
     20 C           8.1348    2.4132    7.5473 C.ar    2  LIG2        0.1010
     21 C           8.5444    3.5300    8.2255 C.ar    2  LIG2       -0.0365
     22 H           8.7742    3.4610    9.1446 H       2  LIG2        0.0633
     23 C           8.6303    4.7808    7.5808 C.ar    2  LIG2       -0.0166
     24 C           9.0133    5.9395    8.3010 C.ar    2  LIG2       -0.0540
     25 H           9.2273    5.8677    9.2242 H       2  LIG2        0.0624
     26 C           9.0789    7.1601    7.6882 C.ar    2  LIG2       -0.0612
     27 H           9.3548    7.9290    8.1723 H       2  LIG2        0.0618
     28 C           8.7306    7.2608    6.3263 C.ar    2  LIG2       -0.0612
     29 H           8.7528    8.1127    5.9051 H       2  LIG2        0.0618
     30 C           8.3612    6.1654    5.5937 C.ar    2  LIG2       -0.0536
     31 H           8.1341    6.2682    4.6779 H       2  LIG2        0.0624
     32 C           8.3131    4.8682    6.1926 C.ar    2  LIG2       -0.0109
     33 C           7.9399    3.7007    5.4642 C.ar    2  LIG2        0.0070
     34 O           7.6039    0.1010    7.6428 O.2     2  LIG2       -0.2450
     35 C           8.0608    1.0889    8.2482 C.2     2  LIG2        0.3404
     36 O           8.4819    1.0644    9.4494 O.3     2  LIG2       -0.4770
     37 H           8.4400   -0.0545    9.9614 H       2  LIG2        0.2954
     38 C           7.6506    3.7320    3.9740 C.3     2  LIG2        0.0057
     39 H           7.3294    2.8367    3.6997 H       2  LIG2        0.0364
     40 H           6.9143    4.3737    3.8112 H       2  LIG2        0.0364
     41 C           8.8201    4.1128    3.0900 C.ar    2  LIG2        0.0070
     42 O           7.5825    5.9633    2.2991 O.3     2  LIG2       -0.5056
     43 H           7.6976    6.6723    1.6775 H       2  LIG2        0.2922
     44 C           8.7322    5.2298    2.2740 C.ar    2  LIG2        0.1349
     45 C           9.8133    5.6225    1.4257 C.ar    2  LIG2        0.1010
     46 C          10.9679    4.8766    1.4097 C.ar    2  LIG2       -0.0365
     47 H          11.6938    5.1511    0.8607 H       2  LIG2        0.0633
     48 C          11.0935    3.7121    2.1927 C.ar    2  LIG2       -0.0166
     49 C          12.2739    2.9272    2.1531 C.ar    2  LIG2       -0.0540
     50 H          13.0020    3.2057    1.6098 H       2  LIG2        0.0624
     51 C          12.3817    1.7771    2.8816 C.ar    2  LIG2       -0.0612
     52 H          13.1816    1.2656    2.8569 H       2  LIG2        0.0618
     53 C          11.2921    1.3566    3.6724 C.ar    2  LIG2       -0.0612
     54 H          11.3619    0.5512    4.1698 H       2  LIG2        0.0618
     55 C          10.1345    2.0868    3.7363 C.ar    2  LIG2       -0.0536
     56 H           9.4118    1.7738    4.2675 H       2  LIG2        0.0624
     57 C           9.9990    3.3109    3.0163 C.ar    2  LIG2       -0.0109
     58 C           9.6762    6.8412    0.5909 C.2     2  LIG2        0.3404
     59 O           8.6481    7.5200    0.5971 O.2     2  LIG2       -0.2450
     60 O          10.7144    7.1548   -0.1436 O.3     2  LIG2       -0.4770
     61 H          10.5145    7.9372   -0.6634 H       2  LIG2        0.2954
@<TRIPOS>BOND
     1    14    13    1
     2    13    16    1
     3    13    15    1
     4    13     3    1
     5     5     4    1
     6     4     3    1
     7     4     6    1
     8     4     7    1
     9     3     2   am
    10     2     1    2
    11     2    10    1
    12     9     7    1
    13     7    10    1
    14     7     8    1
    15    12    10    1
    16    10    11    1
    17    61    60    1
    18    60    58    1
    19    58    59    2
    20    58    45    1
    21    47    46    1
    22    46    45   ar
    23    46    48   ar
    24    45    44   ar
    25    50    49    1
    26    43    42    1
    27    49    48   ar
    28    49    51   ar
    29    48    57   ar
    30    44    42    1
    31    44    41   ar
    32    52    51    1
    33    51    53   ar
    34    57    41   ar
    35    57    55   ar
    36    41    38    1
    37    53    55   ar
    38    53    54    1
    39    39    38    1
    40    55    56    1
    41    40    38    1
    42    38    33    1
    43    31    30    1
    44    33    19   ar
    45    33    32   ar
    46    17    18    1
    47    17    19    1
    48    30    32   ar
    49    30    28   ar
    50    29    28    1
    51    19    20   ar
    52    32    23   ar
    53    28    26   ar
    54    20    21   ar
    55    20    35    1
    56    23    21   ar
    57    23    24   ar
    58    34    35    2
    59    26    27    1
    60    26    24   ar
    61    21    22    1
    62    35    36    1
    63    24    25    1
    64    36    37    1
