@<TRIPOS>MOLECULE
?
 50 53 0 0 0
SMALL
GASTEIGER

@<TRIPOS>ATOM
      1 O           3.4663    5.8459   -1.0634 O.3     1  LIG1       -0.3406
      2 O           5.2086    5.6495    0.4346 O.3     1  LIG1       -0.3395
      3 O           7.0553    3.4896    0.7911 O.3     1  LIG1       -0.4524
      4 O           5.3794    1.5123    1.9009 O.3     1  LIG1       -0.3854
      5 H           5.8573    1.6520    2.5522 H       1  LIG1        0.2101
      6 O           2.4540    2.1855    1.7054 O.3     1  LIG1       -0.3406
      7 O           1.6075    3.5645    0.0490 O.3     1  LIG1       -0.3406
      8 O           7.9421    2.0994   -0.7458 O.2     1  LIG1       -0.2449
      9 C           3.7451    4.4588   -0.8559 C.3     1  LIG1        0.1203
     10 H           3.6167    3.9356   -1.6748 H       1  LIG1        0.0651
     11 C           5.2208    4.5067   -0.4387 C.3     1  LIG1        0.1299
     12 H           5.7806    4.6926   -1.2208 H       1  LIG1        0.0662
     13 C           5.7275    3.2593    0.2767 C.3     1  LIG1        0.1601
     14 H           5.7898    2.5435   -0.3895 H       1  LIG1        0.0788
     15 C           4.8617    2.7463    1.4206 C.3     1  LIG1        0.1232
     16 H           4.8277    3.4057    2.1443 H       1  LIG1        0.0658
     17 C           3.4951    2.5654    0.8097 C.3     1  LIG1        0.1199
     18 H           3.5452    1.9236    0.0717 H       1  LIG1        0.0651
     19 C           2.9663    3.8860    0.3013 C.3     1  LIG1        0.1193
     20 H           2.9951    4.5311    1.0383 H       1  LIG1        0.0651
     21 C           8.0654    2.7950    0.2429 C.2     1  LIG1        0.3396
     22 C           9.3394    2.9456    0.9850 C.ar    1  LIG1        0.0590
     23 C           9.4504    3.6892    2.1555 C.ar    1  LIG1       -0.0478
     24 H           8.7102    4.1417    2.4917 H       1  LIG1        0.0626
     25 C          10.6610    3.7548    2.8187 C.ar    1  LIG1       -0.0610
     26 H          10.7366    4.2569    3.5987 H       1  LIG1        0.0618
     27 C          11.7629    3.0743    2.3236 C.ar    1  LIG1       -0.0617
     28 H          12.5709    3.1063    2.7828 H       1  LIG1        0.0618
     29 C          11.6637    2.3492    1.1511 C.ar    1  LIG1       -0.0610
     30 H          12.4077    1.9043    0.8128 H       1  LIG1        0.0618
     31 C          10.4551    2.2870    0.4848 C.ar    1  LIG1       -0.0478
     32 H          10.3884    1.8000   -0.3054 H       1  LIG1        0.0626
     33 C           1.2140    2.7378    1.1623 C.3     1  LIG1        0.1656
     34 C           0.3289    1.6393    0.6447 C.3     1  LIG1       -0.0108
     35 H          -0.4393    2.0229    0.2142 H       1  LIG1        0.0281
     36 H           0.0436    1.0876    1.3766 H       1  LIG1        0.0281
     37 H           0.8160    1.1061    0.0133 H       1  LIG1        0.0281
     38 C           0.5565    3.5630    2.2396 C.3     1  LIG1       -0.0108
     39 H           1.1138    4.3149    2.4518 H       1  LIG1        0.0281
     40 H           0.4337    3.0247    3.0247 H       1  LIG1        0.0281
     41 H          -0.2956    3.8750    1.9280 H       1  LIG1        0.0281
     42 C           4.3345    6.6104   -0.1906 C.3     1  LIG1        0.1656
     43 C           5.1412    7.5751   -1.0311 C.3     1  LIG1       -0.0108
     44 H           5.7428    8.0647   -0.4664 H       1  LIG1        0.0281
     45 H           4.5482    8.1866   -1.4739 H       1  LIG1        0.0281
     46 H           5.6431    7.0856   -1.6861 H       1  LIG1        0.0281
     47 C           3.5201    7.3186    0.8661 C.3     1  LIG1       -0.0108
     48 H           3.0663    6.6692    1.4073 H       1  LIG1        0.0281
     49 H           2.8760    7.8905    0.4428 H       1  LIG1        0.0281
     50 H           4.1016    7.8451    1.4186 H       1  LIG1        0.0281
@<TRIPOS>BOND
     1    46    43    1
     2    10     9    1
     3    45    43    1
     4    12    11    1
     5     1     9    1
     6     1    42    1
     7    43    44    1
     8    43    42    1
     9     9    11    1
    10     9    19    1
    11     8    21    2
    12    11    13    1
    13    11     2    1
    14    14    13    1
    15    32    31    1
    16    42     2    1
    17    42    47    1
    18    37    34    1
    19     7    19    1
    20     7    33    1
    21    18    17    1
    22    35    34    1
    23    21     3    1
    24    21    22    1
    25    13     3    1
    26    13    15    1
    27    19    17    1
    28    19    20    1
    29    49    47    1
    30    31    22   ar
    31    31    29   ar
    32    34    33    1
    33    34    36    1
    34    17    15    1
    35    17     6    1
    36    30    29    1
    37    47    48    1
    38    47    50    1
    39    22    23   ar
    40    29    27   ar
    41    33     6    1
    42    33    38    1
    43    15     4    1
    44    15    16    1
    45     4     5    1
    46    41    38    1
    47    23    24    1
    48    23    25   ar
    49    38    39    1
    50    38    40    1
    51    27    28    1
    52    27    25   ar
    53    25    26    1
