@<TRIPOS>MOLECULE
?
 51 56 0 0 0
SMALL
GASTEIGER

@<TRIPOS>ATOM
      1 C          11.2663    3.0977   12.1440 C.3     1  LIG1        0.0158
      2 H          10.7094    2.8678   11.3584 H       1  LIG1        0.0465
      3 H          10.9548    2.5761   12.9257 H       1  LIG1        0.0465
      4 C          12.7494    2.8439   11.8635 C.3     1  LIG1       -0.0347
      5 H          12.9589    2.9843   10.9066 H       1  LIG1        0.0281
      6 H          13.0062    1.9221   12.1170 H       1  LIG1        0.0281
      7 C          13.4662    3.8746   12.7394 C.3     1  LIG1       -0.0214
      8 H          13.5635    3.5418   13.6663 H       1  LIG1        0.0291
      9 H          14.3640    4.0806   12.3776 H       1  LIG1        0.0291
     10 C          12.5733    5.1024   12.6979 C.3     1  LIG1        0.1137
     11 C          12.4755    5.9588   13.9718 C.3     1  LIG1       -0.0171
     12 H          13.3383    6.4167   14.1348 H       1  LIG1        0.0294
     13 H          12.2800    5.3804   14.7509 H       1  LIG1        0.0294
     14 C          11.3450    7.0107   13.8016 C.3     1  LIG1       -0.0019
     15 H          11.7913    7.9059   13.8049 H       1  LIG1        0.0333
     16 C          10.3051    7.0371   14.9506 C.3     1  LIG1       -0.0107
     17 C           9.3069    8.1981   14.6577 C.3     1  LIG1        0.0330
     18 H           9.7648    9.0693   14.8356 H       1  LIG1        0.0509
     19 C           7.1105    7.4481   14.7485 C.ar    1  LIG1        0.0309
     20 C           5.9359    6.8632   15.2068 C.ar    1  LIG1       -0.0406
     21 H           5.7217    6.8661   16.1320 H       1  LIG1        0.0636
     22 C           5.0835    6.2751   14.2841 C.ar    1  LIG1       -0.0600
     23 H           4.2919    5.8462   14.5866 H       1  LIG1        0.0618
     24 C           5.3700    6.3045   12.9260 C.ar    1  LIG1       -0.0614
     25 H           4.7625    5.9203   12.3044 H       1  LIG1        0.0618
     26 C           6.5487    6.8977   12.4741 C.ar    1  LIG1       -0.0565
     27 H           6.7474    6.9190   11.5458 H       1  LIG1        0.0621
     28 C           7.4236    7.4530   13.3849 C.ar    1  LIG1       -0.0216
     29 C           8.7127    8.2294   13.2192 C.3     1  LIG1        0.0071
     30 H           8.4340    9.1775   13.0668 H       1  LIG1        0.0368
     31 C           9.6859    7.9011   12.0773 C.3     1  LIG1       -0.0142
     32 H           9.1579    7.6048   11.2942 H       1  LIG1        0.0297
     33 H          10.1566    8.7329   11.8205 H       1  LIG1        0.0297
     34 C          10.7276    6.8358   12.3842 C.3     1  LIG1        0.1149
     35 C          10.2285    5.3876   12.1651 C.2     1  LIG1        0.2402
     36 C          12.8793    6.0695   11.5385 C.2     1  LIG1        0.2375
     37 C          11.0439    7.3883   16.2529 C.3     1  LIG1       -0.0578
     38 H          11.6900    6.6814   16.4632 H       1  LIG1        0.0236
     39 H          10.3964    7.4672   16.9843 H       1  LIG1        0.0236
     40 H          11.5155    8.2400   16.1410 H       1  LIG1        0.0236
     41 C           9.5932    5.6864   15.1342 C.3     1  LIG1       -0.0578
     42 H          10.2601    4.9840   15.2836 H       1  LIG1        0.0236
     43 H           9.0746    5.4792   14.3299 H       1  LIG1        0.0236
     44 H           8.9924    5.7356   15.9061 H       1  LIG1        0.0236
     45 N           8.0836    8.1265   15.4875 N.pl3   1  LIG1       -0.3397
     46 H           7.9870    8.4517   16.2989 H       1  LIG1        0.1464
     47 N          11.2301    4.5325   12.4168 N.am    1  LIG1       -0.2854
     48 N          11.8619    6.9550   11.4287 N.am    1  LIG1       -0.2994
     49 H          11.8713    7.5824   10.8116 H       1  LIG1        0.1498
     50 O           9.1068    5.0726   11.7694 O.2     1  LIG1       -0.2732
     51 O          13.8899    6.0474   10.8498 O.2     1  LIG1       -0.2734
@<TRIPOS>BOND
     1    49    48    1
     2    51    36    2
     3     5     4    1
     4    32    31    1
     5     2     1    1
     6    48    36   am
     7    48    34    1
     8    36    10    1
     9    27    26    1
    10    50    35    2
    11    33    31    1
    12     4     6    1
    13     4     1    1
    14     4     7    1
    15    31    34    1
    16    31    29    1
    17     1    47    1
    18     1     3    1
    19    35    34    1
    20    35    47   am
    21    25    24    1
    22     9     7    1
    23    34    14    1
    24    47    10    1
    25    26    24   ar
    26    26    28   ar
    27    10     7    1
    28    10    11    1
    29     7     8    1
    30    24    22   ar
    31    30    29    1
    32    29    28    1
    33    29    17    1
    34    28    19   ar
    35    14    15    1
    36    14    11    1
    37    14    16    1
    38    11    12    1
    39    11    13    1
    40    22    23    1
    41    22    20   ar
    42    43    41    1
    43    17    18    1
    44    17    16    1
    45    17    45    1
    46    19    20   ar
    47    19    45    1
    48    16    41    1
    49    16    37    1
    50    41    42    1
    51    41    44    1
    52    20    21    1
    53    45    46    1
    54    40    37    1
    55    37    38    1
    56    37    39    1
