@<TRIPOS>MOLECULE
?
 80 80 0 0 0
SMALL
GASTEIGER

@<TRIPOS>ATOM
      1 S           1.4230    8.9413    3.5286 S.O2    1  LIG1        0.0611
      2 O          -0.6046    4.2138    2.2410 O.2     1  LIG1       -0.2758
      3 O           1.1846    8.9697    2.1107 O.2     1  LIG1       -0.1530
      4 O           2.4167    9.8088    4.0757 O.2     1  LIG1       -0.1530
      5 O          -1.9089   10.5353    6.9857 O.2     1  LIG1       -0.2738
      6 N           0.3186    6.3048    2.3836 N.am    1  LIG1       -0.2841
      7 H           0.2411    7.1205    2.0615 H       1  LIG1        0.1548
      8 N          -0.0059    9.2891    4.1907 N.3     1  LIG1       -0.1755
      9 H          -0.6434    9.5169    3.6304 H       1  LIG1        0.1492
     10 N          -1.3781   11.4261    4.9905 N.am    1  LIG1       -0.3168
     11 H          -0.9138   11.3335    4.2497 H       1  LIG1        0.1484
     12 C          -0.4799    5.3556    1.8038 C.2     1  LIG1        0.2141
     13 C           1.2451    6.1430    3.4278 C.ar    1  LIG1        0.0600
     14 C           1.8804    7.2757    3.9766 C.ar    1  LIG1        0.1264
     15 C           2.8844    7.1230    4.9280 C.ar    1  LIG1       -0.0335
     16 H           3.3334    7.8896    5.2638 H       1  LIG1        0.0638
     17 C           3.2339    5.8694    5.3895 C.ar    1  LIG1       -0.0598
     18 H           3.9227    5.7702    6.0368 H       1  LIG1        0.0618
     19 C           2.5674    4.7576    4.8937 C.ar    1  LIG1       -0.0599
     20 H           2.7807    3.8952    5.2284 H       1  LIG1        0.0618
     21 C           1.6017    4.8869    3.9232 C.ar    1  LIG1       -0.0386
     22 H           1.1702    4.1103    3.5847 H       1  LIG1        0.0637
     23 C          -0.3800    9.2716    5.6322 C.3     1  LIG1        0.1100
     24 C           0.8100    9.4218    6.5788 C.3     1  LIG1       -0.0370
     25 H           1.3926    8.6369    6.4981 H       1  LIG1        0.0253
     26 H           0.4869    9.4960    7.5019 H       1  LIG1        0.0253
     27 H           1.3130   10.2283    6.3444 H       1  LIG1        0.0253
     28 C          -1.1268    7.9746    5.9215 C.3     1  LIG1       -0.0370
     29 H          -1.9102    7.9104    5.3344 H       1  LIG1        0.0253
     30 H          -1.4199    7.9680    6.8577 H       1  LIG1        0.0253
     31 H          -0.5335    7.2131    5.7584 H       1  LIG1        0.0253
     32 C          -1.3086   10.4744    5.9096 C.2     1  LIG1        0.2340
     33 C          -2.1957   12.6230    5.1613 C.3     1  LIG1        0.0001
     34 H          -3.0906   12.4628    4.7941 H       1  LIG1        0.0426
     35 H          -1.7779   13.3736    4.6881 H       1  LIG1        0.0426
     36 H          -2.2680   12.8365    6.1158 H       1  LIG1        0.0426
     37 C          -1.1930    5.8277    0.5684 C.3     1  LIG1        0.0125
     38 H          -0.6275    5.6684   -0.2161 H       1  LIG1        0.0323
     39 H          -1.3826    6.7869    0.6463 H       1  LIG1        0.0323
     40 H          -2.0354    5.3364    0.4696 H       1  LIG1        0.0323
     41 S          -2.4908    1.6797   10.8902 S.O2    2  LIG2        0.0611
     42 O          -1.6635    5.9795    8.3551 O.2     2  LIG2       -0.2758
     43 O          -1.0845    1.5380   10.6431 O.2     2  LIG2       -0.1530
     44 O          -3.1024    0.8749   11.9034 O.2     2  LIG2       -0.1530
     45 O          -6.0780    0.3812    7.5661 O.2     2  LIG2       -0.2738
     46 N          -1.1423    4.2496    9.7318 N.am    2  LIG2       -0.2841
     47 H          -0.6092    3.5582    9.8480 H       2  LIG2        0.1548
     48 N          -3.1839    1.3479    9.4632 N.3     2  LIG2       -0.1755
     49 H          -2.6538    1.0593    8.8235 H       2  LIG2        0.1492
     50 N          -4.1985   -0.7231    8.1003 N.am    2  LIG2       -0.3168
     51 H          -3.4442   -0.7206    8.5554 H       2  LIG2        0.1484
     52 C          -0.9160    5.0554    8.6539 C.2     2  LIG2        0.2141
     53 C          -2.1734    4.4540   10.6701 C.ar    2  LIG2        0.0600
     54 C          -2.8187    3.3747   11.3147 C.ar    2  LIG2        0.1264
     55 C          -3.7879    3.6157   12.2800 C.ar    2  LIG2       -0.0335
     56 H          -4.1798    2.8859   12.7449 H       2  LIG2        0.0638
     57 C          -4.1906    4.9119   12.5709 C.ar    2  LIG2       -0.0598
     58 H          -4.8815    5.0695   13.2062 H       2  LIG2        0.0618
     59 C          -3.5768    5.9720   11.9257 C.ar    2  LIG2       -0.0599
     60 H          -3.8539    6.8595   12.1173 H       2  LIG2        0.0618
     61 C          -2.5724    5.7602   11.0140 C.ar    2  LIG2       -0.0386
     62 H          -2.1428    6.5042   10.6107 H       2  LIG2        0.0637
     63 C          -4.6245    1.4822    9.1248 C.3     2  LIG2        0.1100
     64 C          -4.8557    2.8267    8.4303 C.3     2  LIG2       -0.0370
     65 H          -4.6434    3.5557    9.0500 H       2  LIG2        0.0253
     66 H          -5.7940    2.8951    8.1544 H       2  LIG2        0.0253
     67 H          -4.2765    2.8909    7.6411 H       2  LIG2        0.0253
     68 C          -5.5664    1.3262   10.3285 C.3     2  LIG2       -0.0370
     69 H          -5.3608    0.4904   10.7977 H       2  LIG2        0.0253
     70 H          -6.4935    1.3062   10.0163 H       2  LIG2        0.0253
     71 H          -5.4417    2.0819   10.9390 H       2  LIG2        0.0253
     72 C          -5.0061    0.3286    8.1760 C.2     2  LIG2        0.2340
     73 C          -4.5318   -1.8792    7.2822 C.3     2  LIG2        0.0001
     74 H          -5.4662   -2.1327    7.4395 H       2  LIG2        0.0426
     75 H          -3.9445   -2.6282    7.5206 H       2  LIG2        0.0426
     76 H          -4.4092   -1.6565    6.3361 H       2  LIG2        0.0426
     77 C           0.3075    4.7326    7.8472 C.3     2  LIG2        0.0125
     78 H           0.0871    4.7668    6.8930 H       2  LIG2        0.0323
     79 H           0.6215    3.8334    8.0775 H       2  LIG2        0.0323
     80 H           1.0109    5.3857    8.0442 H       2  LIG2        0.0323
@<TRIPOS>BOND
     1    38    37    1
     2    40    37    1
     3    37    39    1
     4    37    12    1
     5    12     2    2
     6    12     6   am
     7     7     6    1
     8     3     1    2
     9     6    13    1
    10    13    21   ar
    11    13    14   ar
    12     1    14    1
    13     1     4    2
    14     1     8    1
    15    22    21    1
    16     9     8    1
    17    21    19   ar
    18    14    15   ar
    19     8    23    1
    20    11    10    1
    21    35    33    1
    22    34    33    1
    23    19    20    1
    24    19    17   ar
    25    15    16    1
    26    15    17   ar
    27    10    33    1
    28    10    32   am
    29    33    36    1
    30    29    28    1
    31    17    18    1
    32    23    32    1
    33    23    28    1
    34    23    24    1
    35    31    28    1
    36    32     5    2
    37    28    30    1
    38    76    73    1
    39    27    24    1
    40    25    24    1
    41    24    26    1
    42    78    77    1
    43    73    74    1
    44    73    75    1
    45    73    50    1
    46    45    72    2
    47    67    64    1
    48    77    80    1
    49    77    79    1
    50    77    52    1
    51    50    72   am
    52    50    51    1
    53    66    64    1
    54    72    63    1
    55    42    52    2
    56    64    65    1
    57    64    63    1
    58    52    46   am
    59    49    48    1
    60    63    48    1
    61    63    68    1
    62    48    41    1
    63    46    47    1
    64    46    53    1
    65    70    68    1
    66    68    69    1
    67    68    71    1
    68    62    61    1
    69    43    41    2
    70    53    61   ar
    71    53    54   ar
    72    41    54    1
    73    41    44    2
    74    61    59   ar
    75    54    55   ar
    76    59    60    1
    77    59    57   ar
    78    55    57   ar
    79    55    56    1
    80    57    58    1
