@<TRIPOS>MOLECULE
?
 156 162 0 0 0
SMALL
GASTEIGER

@<TRIPOS>ATOM
      1 S           7.9911    5.7189    3.2912 S.3     1  LIG1        0.2092
      2 S           3.2547   14.3725    3.3111 S.3     2  LIG2        0.2092
      3 O           8.5929    6.8851    2.7806 O.2     1  LIG1       -0.1362
      4 O           7.2733    5.8971    4.4948 O.3     1  LIG1       -0.0397
      5 O           8.7950    4.5838    3.2696 O.2     1  LIG1       -0.1362
      6 O           2.6186   15.5500    2.8528 O.2     2  LIG2       -0.1362
      7 O           2.4689   13.1892    3.1465 O.2     2  LIG2       -0.1362
      8 O           3.9220   14.4924    4.5706 O.3     2  LIG2       -0.0397
      9 N          10.4736   17.2407    4.7609 N.pl3   3  LIG3       -0.2925
     10 N          11.2688   18.4719    3.1169 N.pl3   3  LIG3       -0.3053
     11 N          11.1528    8.6064    4.7023 N.pl3   4  LIG4       -0.2925
     12 N          10.0989    9.8358    3.2020 N.pl3   4  LIG4       -0.3053
     13 F           7.2272    5.1375    0.9176 F       1  LIG1       -0.1486
     14 F           5.9800    4.3713    2.3761 F       1  LIG1       -0.1486
     15 F           5.8703    6.3903    1.9945 F       1  LIG1       -0.1486
     16 F           5.4385   15.2461    2.2389 F       2  LIG2       -0.1486
     17 F           5.3663   13.1889    2.3955 F       2  LIG2       -0.1486
     18 F           4.2197   14.1012    0.9265 F       2  LIG2       -0.1486
     19 C          10.8079   17.3174    3.4966 C.3     3  LIG3        0.1271
     20 H          10.6505   16.6121    2.9442 H       3  LIG3        0.0746
     21 C          10.8486   18.5495    5.4521 C.3     3  LIG3        0.1027
     22 C          11.0826   19.4523    4.2040 C.3     3  LIG3        0.0439
     23 H          10.3159   20.0215    4.0347 H       3  LIG3        0.0492
     24 H          11.8719   20.0062    4.3161 H       3  LIG3        0.0492
     25 C           9.5745   16.1967    5.2447 C.ar    3  LIG3        0.0380
     26 C          10.0775   15.1141    5.9639 C.ar    3  LIG3       -0.0288
     27 C           9.1852   14.0847    6.2787 C.ar    3  LIG3       -0.0541
     28 H           9.5042   13.3442    6.7432 H       3  LIG3        0.0623
     29 C           7.8529   14.1222    5.9301 C.ar    3  LIG3       -0.0498
     30 C           7.3901   15.2408    5.2676 C.ar    3  LIG3       -0.0541
     31 H           6.4869   15.2926    5.0548 H       3  LIG3        0.0623
     32 C           8.2172   16.2870    4.9088 C.ar    3  LIG3       -0.0288
     33 C          11.4795   15.0192    6.4586 C.3     3  LIG3       -0.0379
     34 H          12.0859   15.0922    5.7178 H       3  LIG3        0.0278
     35 H          11.6083   14.1732    6.8944 H       3  LIG3        0.0278
     36 H          11.6475   15.7291    7.0809 H       3  LIG3        0.0278
     37 C           6.9331   12.9828    6.2630 C.3     3  LIG3       -0.0397
     38 H           7.4494   12.1869    6.4090 H       3  LIG3        0.0278
     39 H           6.3236   12.8407    5.5367 H       3  LIG3        0.0278
     40 H           6.4381   13.1934    7.0598 H       3  LIG3        0.0278
     41 C           7.6188   17.4504    4.1683 C.3     3  LIG3       -0.0379
     42 H           7.4699   17.2038    3.2520 H       3  LIG3        0.0278
     43 H           8.2209   18.1964    4.2035 H       3  LIG3        0.0278
     44 H           6.7828   17.6926    4.5728 H       3  LIG3        0.0278
     45 C           9.7439   18.9935    6.3900 C.ar    3  LIG3       -0.0181
     46 C           8.9940   20.1421    6.1756 C.ar    3  LIG3       -0.0562
     47 H           9.1538   20.6645    5.4241 H       3  LIG3        0.0621
     48 C           8.0112   20.5127    7.0703 C.ar    3  LIG3       -0.0614
     49 H           7.5135   21.2831    6.9173 H       3  LIG3        0.0618
     50 C           7.7636   19.7514    8.1872 C.ar    3  LIG3       -0.0617
     51 H           7.0945   20.0018    8.7834 H       3  LIG3        0.0618
     52 C           8.5113   18.6142    8.4211 C.ar    3  LIG3       -0.0614
     53 H           8.3522   18.0998    9.1791 H       3  LIG3        0.0618
     54 C           9.4906   18.2497    7.5325 C.ar    3  LIG3       -0.0562
     55 H           9.9938   17.4856    7.7000 H       3  LIG3        0.0621
     56 C          12.1967   18.4112    6.1876 C.ar    3  LIG3       -0.0181
     57 C          13.2162   17.6315    5.6610 C.ar    3  LIG3       -0.0562
     58 H          13.0615   17.1321    4.8912 H       3  LIG3        0.0621
     59 C          14.4581   17.5873    6.2666 C.ar    3  LIG3       -0.0614
     60 H          15.1291   17.0531    5.9078 H       3  LIG3        0.0618
     61 C          14.7052   18.3267    7.3939 C.ar    3  LIG3       -0.0617
     62 H          15.5373   18.2869    7.8073 H       3  LIG3        0.0618
     63 C          13.7233   19.1226    7.9057 C.ar    3  LIG3       -0.0614
     64 H          13.8974   19.6407    8.6567 H       3  LIG3        0.0618
     65 C          12.4654   19.1674    7.3195 C.ar    3  LIG3       -0.0562
     66 H          11.8014   19.7048    7.6859 H       3  LIG3        0.0621
     67 C          11.5967   18.8826    1.7621 C.ar    3  LIG3        0.0371
     68 C          12.9391   19.1197    1.4375 C.ar    3  LIG3       -0.0289
     69 C          13.1976   19.6284    0.1711 C.ar    3  LIG3       -0.0541
     70 H          14.0799   19.7818   -0.0791 H       3  LIG3        0.0623
     71 C          12.1862   19.9149   -0.7338 C.ar    3  LIG3       -0.0498
     72 C          10.8984   19.6368   -0.3750 C.ar    3  LIG3       -0.0541
     73 H          10.2165   19.8047   -0.9849 H       3  LIG3        0.0623
     74 C          10.5715   19.1143    0.8646 C.ar    3  LIG3       -0.0289
     75 C          14.0523   18.8562    2.3902 C.3     3  LIG3       -0.0379
     76 H          13.9028   19.3482    3.2010 H       3  LIG3        0.0278
     77 H          14.8820   19.1330    1.9962 H       3  LIG3        0.0278
     78 H          14.0887   17.9178    2.5872 H       3  LIG3        0.0278
     79 C          12.5145   20.5350   -2.0692 C.3     3  LIG3       -0.0397
     80 H          12.9163   21.3964   -1.9311 H       3  LIG3        0.0278
     81 H          11.7088   20.6359   -2.5819 H       3  LIG3        0.0278
     82 H          13.1264   19.9685   -2.5432 H       3  LIG3        0.0278
     83 C           9.1230   18.8320    1.1907 C.3     3  LIG3       -0.0379
     84 H           9.0091   17.8923    1.3525 H       3  LIG3        0.0278
     85 H           8.5710   19.0985    0.4520 H       3  LIG3        0.0278
     86 H           8.8688   19.3257    1.9734 H       3  LIG3        0.0278
     87 C          10.6720    8.7003    3.4884 C.3     4  LIG4        0.1271
     88 H          10.6948    8.0237    2.8580 H       4  LIG4        0.0746
     89 C          10.8021    9.8791    5.4839 C.3     4  LIG4        0.1027
     90 C          10.3496   10.7857    4.3041 C.3     4  LIG4        0.0439
     91 H           9.5435   11.2740    4.5306 H       4  LIG4        0.0492
     92 H          11.0457   11.4182    4.0663 H       4  LIG4        0.0492
     93 C          12.1064    7.5714    5.0567 C.ar    4  LIG4        0.0380
     94 C          11.6831    6.4256    5.7321 C.ar    4  LIG4       -0.0288
     95 C          12.6151    5.4167    5.9257 C.ar    4  LIG4       -0.0541
     96 H          12.3436    4.6421    6.3615 H       4  LIG4        0.0623
     97 C          13.9168    5.5054    5.5050 C.ar    4  LIG4       -0.0498
     98 C          14.3167    6.6821    4.9091 C.ar    4  LIG4       -0.0541
     99 H          15.2091    6.7797    4.6661 H       4  LIG4        0.0623
    100 C          13.4365    7.7282    4.6592 C.ar    4  LIG4       -0.0288
    101 C          10.2946    6.2670    6.2666 C.3     4  LIG4       -0.0379
    102 H          10.1739    6.8473    7.0211 H       4  LIG4        0.0278
    103 H          10.1577    5.3553    6.5374 H       4  LIG4        0.0278
    104 H           9.6602    6.4947    5.5824 H       4  LIG4        0.0278
    105 C          14.8674    4.3471    5.6580 C.3     4  LIG4       -0.0397
    106 H          14.5832    3.7936    6.3897 H       4  LIG4        0.0278
    107 H          15.7514    4.6793    5.8339 H       4  LIG4        0.0278
    108 H          14.8749    3.8290    4.8507 H       4  LIG4        0.0278
    109 C          13.9644    8.9482    3.9608 C.3     4  LIG4       -0.0379
    110 H          14.6655    9.3397    4.4867 H       4  LIG4        0.0278
    111 H          13.2543    9.5844    3.8500 H       4  LIG4        0.0278
    112 H          14.3089    8.6999    3.1007 H       4  LIG4        0.0278
    113 C           9.5879    9.6295    6.4029 C.ar    4  LIG4       -0.0181
    114 C           8.4724    8.9279    5.9238 C.ar    4  LIG4       -0.0562
    115 H           8.4885    8.5633    5.0671 H       4  LIG4        0.0621
    116 C           7.3621    8.7731    6.7045 C.ar    4  LIG4       -0.0614
    117 H           6.6314    8.3023    6.3721 H       4  LIG4        0.0618
    118 C           7.3047    9.3009    7.9673 C.ar    4  LIG4       -0.0617
    119 H           6.5483    9.1781    8.4932 H       4  LIG4        0.0618
    120 C           8.3755   10.0078    8.4457 C.ar    4  LIG4       -0.0614
    121 H           8.3435   10.3716    9.3005 H       4  LIG4        0.0618
    122 C           9.5117   10.1861    7.6592 C.ar    4  LIG4       -0.0562
    123 H          10.2248   10.6859    7.9867 H       4  LIG4        0.0621
    124 C          12.0130   10.3546    6.2514 C.ar    4  LIG4       -0.0181
    125 C          12.5375    9.5634    7.2724 C.ar    4  LIG4       -0.0562
    126 H          12.1145    8.7659    7.4942 H       4  LIG4        0.0621
    127 C          13.6715    9.9432    7.9590 C.ar    4  LIG4       -0.0614
    128 H          14.0240    9.3871    8.6163 H       4  LIG4        0.0618
    129 C          14.2794   11.1406    7.6718 C.ar    4  LIG4       -0.0617
    130 H          15.0368   11.4046    8.1432 H       4  LIG4        0.0618
    131 C          13.7645   11.9459    6.6851 C.ar    4  LIG4       -0.0614
    132 H          14.1763   12.7554    6.4864 H       4  LIG4        0.0618
    133 C          12.6375   11.5593    5.9841 C.ar    4  LIG4       -0.0562
    134 H          12.2951   12.1168    5.3238 H       4  LIG4        0.0621
    135 C           9.6488   10.2572    1.8942 C.ar    4  LIG4        0.0371
    136 C           8.2856   10.4461    1.6779 C.ar    4  LIG4       -0.0289
    137 C           7.9192   10.9435    0.4151 C.ar    4  LIG4       -0.0541
    138 H           7.0161   11.0696    0.2339 H       4  LIG4        0.0623
    139 C           8.8276   11.2495   -0.5611 C.ar    4  LIG4       -0.0498
    140 C          10.1529   11.0337   -0.2986 C.ar    4  LIG4       -0.0541
    141 H          10.7751   11.2313   -0.9603 H       4  LIG4        0.0623
    142 C          10.6096   10.5310    0.9158 C.ar    4  LIG4       -0.0289
    143 C           7.2520   10.1357    2.7120 C.3     4  LIG4       -0.0379
    144 H           7.2476    9.1909    2.8862 H       4  LIG4        0.0278
    145 H           6.3888   10.4062    2.3920 H       4  LIG4        0.0278
    146 H           7.4578   10.6096    3.5211 H       4  LIG4        0.0278
    147 C           8.3879   11.8369   -1.8801 C.3     4  LIG4       -0.0397
    148 H           7.6741   11.3074   -2.2442 H       4  LIG4        0.0278
    149 H           9.1279   11.8376   -2.4922 H       4  LIG4        0.0278
    150 H           8.0818   12.7352   -1.7447 H       4  LIG4        0.0278
    151 C          12.0704   10.2953    1.1239 C.3     4  LIG4       -0.0379
    152 H          12.3926   10.8776    1.8151 H       4  LIG4        0.0278
    153 H          12.5426   10.4764    0.3078 H       4  LIG4        0.0278
    154 H          12.2139    9.3809    1.3806 H       4  LIG4        0.0278
    155 C           6.6952    5.3597    2.0824 C.3     1  LIG1        0.5487
    156 C           4.6282   14.1736    2.1492 C.3     2  LIG2        0.5487
@<TRIPOS>BOND
     1    81    79    1
     2    82    79    1
     3   149   147    1
     4   148   147    1
     5    79    80    1
     6    79    71    1
     7   147   150    1
     8   147   139    1
     9    73    72    1
    10   141   140    1
    11    71    72   ar
    12    71    69   ar
    13   139   140   ar
    14   139   137   ar
    15    72    74   ar
    16   140   142   ar
    17    70    69    1
    18    69    68   ar
    19   138   137    1
    20   153   151    1
    21   137   136   ar
    22    85    83    1
    23    74    83    1
    24    74    67   ar
    25   142   151    1
    26   142   135   ar
    27    13   155    1
    28    18   156    1
    29   151   154    1
    30   151   152    1
    31    83    84    1
    32    83    86    1
    33    68    67   ar
    34    68    75    1
    35   136   135   ar
    36   136   143    1
    37    67    10    1
    38   135    12    1
    39    15   155    1
    40    77    75    1
    41   155    14    1
    42   155     1    1
    43   156    16    1
    44   156    17    1
    45   156     2    1
    46    75    78    1
    47    75    76    1
    48   145   143    1
    49   143   144    1
    50   143   146    1
    51     3     1    2
    52     6     2    2
    53    88    87    1
    54    20    19    1
    55   112   109    1
    56    10    19    1
    57    10    22    1
    58     7     2    2
    59    12    87    1
    60    12    90    1
    61    42    41    1
    62     5     1    2
    63     1     4    1
    64     2     8    1
    65    87    11    1
    66    19     9    1
    67   111   109    1
    68   109   110    1
    69   109   100    1
    70    23    22    1
    71    92    90    1
    72    41    43    1
    73    41    44    1
    74    41    32    1
    75    22    24    1
    76    22    21    1
    77    90    91    1
    78    90    89    1
    79   100    98   ar
    80   100    93   ar
    81    99    98    1
    82    11    93    1
    83    11    89    1
    84     9    25    1
    85     9    21    1
    86   108   105    1
    87    58    57    1
    88    32    25   ar
    89    32    30   ar
    90    98    97   ar
    91    31    30    1
    92    93    94   ar
    93   115   114    1
    94    25    26   ar
    95    30    29   ar
    96   134   133    1
    97    47    46    1
    98    21    56    1
    99    21    45    1
   100    89   124    1
   101    89   113    1
   102    97   105    1
   103    97    95   ar
   104    39    37    1
   105   104   101    1
   106   105   107    1
   107   105   106    1
   108    57    56   ar
   109    57    59   ar
   110    34    33    1
   111    94    95   ar
   112    94   101    1
   113    60    59    1
   114   114   113   ar
   115   114   116   ar
   116    95    96    1
   117    29    37    1
   118    29    27   ar
   119    26    27   ar
   120    26    33    1
   121   133   124   ar
   122   133   131   ar
   123    46    45   ar
   124    46    48   ar
   125    56    65   ar
   126   124   125   ar
   127    37    38    1
   128    37    40    1
   129   101   103    1
   130   101   102    1
   131    59    61   ar
   132    27    28    1
   133   117   116    1
   134    45    54   ar
   135   113   122   ar
   136    33    35    1
   137    33    36    1
   138   132   131    1
   139   131   129   ar
   140   116   118   ar
   141    49    48    1
   142    48    50   ar
   143   125   126    1
   144   125   127   ar
   145    65    66    1
   146    65    63   ar
   147    61    62    1
   148    61    63   ar
   149    54    55    1
   150    54    52   ar
   151   122   123    1
   152   122   120   ar
   153   129   127   ar
   154   129   130    1
   155    63    64    1
   156   127   128    1
   157   118   120   ar
   158   118   119    1
   159    50    52   ar
   160    50    51    1
   161    52    53    1
   162   120   121    1
