@<TRIPOS>MOLECULE
?
 59 62 0 0 0
SMALL
GASTEIGER

@<TRIPOS>ATOM
      1 P           1.8304   11.1891   20.6856 P.3     1  LIG1        0.1781
      2 S           4.1108    9.0980   17.9852 S.O2    1  LIG1        0.0618
      3 S           1.0144    9.6785   21.6161 S.3     1  LIG1        0.1430
      4 N           3.3307    9.4778   19.3387 N.3     1  LIG1       -0.1465
      5 O           3.9623    7.6856   17.8294 O.2     1  LIG1       -0.1529
      6 O           5.4070    9.6631   18.0546 O.2     1  LIG1       -0.1529
      7 C           3.5231   10.7440   20.0426 C.3     1  LIG1        0.1854
      8 H           3.8032   11.4242   19.3940 H       1  LIG1        0.1000
      9 C           4.5673   10.6542   21.1338 C.ar    1  LIG1        0.0105
     10 C           5.5565   11.6121   21.2322 C.ar    1  LIG1       -0.0532
     11 H           5.5831   12.3137   20.6216 H       1  LIG1        0.0622
     12 C           6.5096   11.5325   22.2362 C.ar    1  LIG1       -0.0584
     13 H           7.1743   12.1818   22.2865 H       1  LIG1        0.0620
     14 C           6.4941   10.5127   23.1617 C.ar    1  LIG1       -0.0504
     15 C           5.5245    9.5583   23.0433 C.ar    1  LIG1       -0.0584
     16 H           5.5025    8.8538   23.6493 H       1  LIG1        0.0620
     17 C           4.5760    9.6173   22.0407 C.ar    1  LIG1       -0.0532
     18 H           3.9332    8.9475   21.9772 H       1  LIG1        0.0622
     19 C           7.5241   10.4201   24.2650 C.3     1  LIG1       -0.0397
     20 H           7.0800   10.3009   25.1088 H       1  LIG1        0.0278
     21 H           8.0414   11.2287   24.2872 H       1  LIG1        0.0278
     22 H           8.1036    9.6740   24.0988 H       1  LIG1        0.0278
     23 C           3.2557    9.8949   16.6715 C.ar    1  LIG1        0.1054
     24 C           2.0774    9.3524   16.2041 C.ar    1  LIG1       -0.0351
     25 H           1.7478    8.5612   16.5644 H       1  LIG1        0.0637
     26 C           1.3944    9.9944   15.1994 C.ar    1  LIG1       -0.0570
     27 H           0.5951    9.6347   14.8899 H       1  LIG1        0.0621
     28 C           1.8705   11.1558   14.6448 C.ar    1  LIG1       -0.0503
     29 C           3.0442   11.6763   15.1155 C.ar    1  LIG1       -0.0570
     30 H           3.3748   12.4641   14.7473 H       1  LIG1        0.0621
     31 C           3.7483   11.0528   16.1290 C.ar    1  LIG1       -0.0351
     32 H           4.5458   11.4149   16.4388 H       1  LIG1        0.0637
     33 C           1.0785   11.9065   13.5625 C.3     1  LIG1       -0.0397
     34 H           0.6436   11.2726   12.9882 H       1  LIG1        0.0278
     35 H           1.6782   12.4479   13.0461 H       1  LIG1        0.0278
     36 H           0.4193   12.4664   13.9789 H       1  LIG1        0.0278
     37 C           2.0161   12.6651   21.7152 C.ar    1  LIG1        0.1152
     38 C           2.6698   13.7828   21.2940 C.ar    1  LIG1       -0.0181
     39 H           3.0983   13.7793   20.4693 H       1  LIG1        0.0657
     40 C           2.7036   14.9187   22.0757 C.ar    1  LIG1       -0.0580
     41 H           3.1568   15.6753   21.7790 H       1  LIG1        0.0619
     42 C           2.0737   14.9303   23.2779 C.ar    1  LIG1       -0.0615
     43 H           2.0866   15.6995   23.7991 H       1  LIG1        0.0618
     44 C           1.4338   13.8348   23.7153 C.ar    1  LIG1       -0.0580
     45 H           1.0117   13.8441   24.5434 H       1  LIG1        0.0619
     46 C           1.3990   12.6931   22.9384 C.ar    1  LIG1       -0.0181
     47 H           0.9540   11.9378   23.2482 H       1  LIG1        0.0657
     48 C           0.9018   11.7120   19.2256 C.ar    1  LIG1        0.1152
     49 C          -0.3662   11.1986   19.0149 C.ar    1  LIG1       -0.0181
     50 H          -0.7233   10.5716   19.6018 H       1  LIG1        0.0657
     51 C          -1.0996   11.6289   17.9191 C.ar    1  LIG1       -0.0580
     52 H          -1.9511   11.2830   17.7750 H       1  LIG1        0.0619
     53 C          -0.6024   12.5381   17.0603 C.ar    1  LIG1       -0.0615
     54 H          -1.1106   12.8123   16.3300 H       1  LIG1        0.0618
     55 C           0.6482   13.0621   17.2548 C.ar    1  LIG1       -0.0580
     56 H           0.9888   13.6937   16.6635 H       1  LIG1        0.0619
     57 C           1.3990   12.6480   18.3342 C.ar    1  LIG1       -0.0181
     58 H           2.2495   13.0008   18.4661 H       1  LIG1        0.0657
     59 H           2.7284    9.0216   19.5656 H       1  LIG1        0.1525
@<TRIPOS>BOND
     1    34    33    1
     2    35    33    1
     3    33    36    1
     4    33    28    1
     5    28    29   ar
     6    28    26   ar
     7    30    29    1
     8    27    26    1
     9    29    31   ar
    10    26    24   ar
    11    31    32    1
    12    31    23   ar
    13    24    25    1
    14    24    23   ar
    15    54    53    1
    16    56    55    1
    17    23     2    1
    18    53    55   ar
    19    53    51   ar
    20    55    57   ar
    21    52    51    1
    22     5     2    2
    23    51    49   ar
    24     2     6    2
    25     2     4    1
    26    57    58    1
    27    57    48   ar
    28    49    48   ar
    29    49    50    1
    30    48     1    1
    31     4    59    1
    32     4     7    1
    33     8     7    1
    34     7     1    1
    35     7     9    1
    36    39    38    1
    37    11    10    1
    38     1     3    1
    39     1    37    1
    40     9    10   ar
    41     9    17   ar
    42    10    12   ar
    43    38    37   ar
    44    38    40   ar
    45    37    46   ar
    46    41    40    1
    47    18    17    1
    48    17    15   ar
    49    40    42   ar
    50    12    13    1
    51    12    14   ar
    52    46    47    1
    53    46    44   ar
    54    15    14   ar
    55    15    16    1
    56    14    19    1
    57    42    44   ar
    58    42    43    1
    59    44    45    1
    60    22    19    1
    61    19    21    1
    62    19    20    1
