@<TRIPOS>MOLECULE
ethyl 2-(2-(cyclohexylidenemethyl)-1-oxo-1H-inden-3-yl)acetate
 45 47 0 0 0
SMALL
GASTEIGER

@<TRIPOS>ATOM
      1 O          -0.7369    8.7313    7.0774 O.2     1  LIG1       -0.2866
      2 O           1.1181    7.1309    0.5051 O.2     1  LIG1       -0.2505
      3 O           1.4582    8.9733    1.7518 O.3     1  LIG1       -0.4647
      4 C          -0.6666    8.8578    5.8710 C.2     1  LIG1        0.1940
      5 C          -0.2788    7.7919    4.8707 C.2     1  LIG1        0.0265
      6 C          -0.4416    8.3116    3.6267 C.2     1  LIG1       -0.0181
      7 C          -0.8796    9.7272    3.7199 C.ar    1  LIG1       -0.0098
      8 C          -1.1957   10.6317    2.7226 C.ar    1  LIG1       -0.0536
      9 H          -1.1627   10.3747    1.7798 H       1  LIG1        0.0624
     10 C          -1.6166   11.9139    3.1166 C.ar    1  LIG1       -0.0612
     11 H          -1.8689   12.5677    2.4439 H       1  LIG1        0.0618
     12 C          -1.7134   12.2695    4.4547 C.ar    1  LIG1       -0.0611
     13 H          -2.0196   13.1535    4.7111 H       1  LIG1        0.0618
     14 C          -1.4028   11.3387    5.4575 C.ar    1  LIG1       -0.0503
     15 H          -1.4732   11.5609    6.4002 H       1  LIG1        0.0625
     16 C          -1.0005   10.0785    5.0694 C.ar    1  LIG1        0.0297
     17 C           0.0511    6.4280    5.2807 C.2     1  LIG1       -0.0514
     18 H          -0.5344    6.0473    5.9704 H       1  LIG1        0.0624
     19 C           1.0549    5.6627    4.8145 C.2     1  LIG1       -0.0689
     20 C           2.1192    6.1372    3.8642 C.3     1  LIG1       -0.0314
     21 H           1.9862    5.6899    2.9729 H       1  LIG1        0.0310
     22 H           2.0309    7.1405    3.7145 H       1  LIG1        0.0310
     23 C           3.5285    5.8136    4.3878 C.3     1  LIG1       -0.0493
     24 H           4.2153    6.0881    3.6909 H       1  LIG1        0.0268
     25 H           3.7057    6.3867    5.1986 H       1  LIG1        0.0268
     26 C           3.6730    4.3408    4.7529 C.3     1  LIG1       -0.0525
     27 H           3.5445    3.7857    3.9223 H       1  LIG1        0.0265
     28 H           4.6162    4.1887    5.0975 H       1  LIG1        0.0265
     29 C           2.6226    3.9245    5.7759 C.3     1  LIG1       -0.0493
     30 H           2.7658    4.4400    6.6600 H       1  LIG1        0.0268
     31 H           2.6961    2.9469    6.0044 H       1  LIG1        0.0268
     32 C           1.2102    4.2284    5.2673 C.3     1  LIG1       -0.0314
     33 H           0.5061    4.0369    5.9798 H       1  LIG1        0.0310
     34 H           1.0519    3.6127    4.5023 H       1  LIG1        0.0310
     35 C          -0.3730    7.5808    2.3313 C.3     1  LIG1        0.0713
     36 H          -1.1564    7.8422    1.7977 H       1  LIG1        0.0427
     37 H          -0.4069    6.6037    2.4940 H       1  LIG1        0.0427
     38 C           0.8163    7.8484    1.4277 C.2     1  LIG1        0.3115
     39 C           2.6137    9.3272    0.9258 C.3     1  LIG1        0.0897
     40 H           2.4007    9.1378   -0.0217 H       1  LIG1        0.0694
     41 H           2.7019   10.3012    1.0684 H       1  LIG1        0.0694
     42 C           3.8443    8.5881    1.3715 C.3     1  LIG1       -0.0306
     43 H           3.7183    7.6137    1.2130 H       1  LIG1        0.0262
     44 H           4.0041    8.7233    2.3532 H       1  LIG1        0.0262
     45 H           4.5936    8.8816    0.8304 H       1  LIG1        0.0262
@<TRIPOS>BOND
     1    40    39    1
     2     2    38    2
     3    45    42    1
     4    39    41    1
     5    39    42    1
     6    39     3    1
     7    43    42    1
     8    42    44    1
     9    38     3    1
    10    38    35    1
    11     9     8    1
    12    36    35    1
    13    35    37    1
    14    35     6    1
    15    11    10    1
    16     8    10   ar
    17     8     7   ar
    18    21    20    1
    19    10    12   ar
    20     6     7    1
    21     6     5    2
    22    24    23    1
    23    22    20    1
    24     7    16   ar
    25    20    23    1
    26    20    19    1
    27    27    26    1
    28    23    26    1
    29    23    25    1
    30    12    13    1
    31    12    14   ar
    32    34    32    1
    33    26    28    1
    34    26    29    1
    35    19    32    1
    36    19    17    2
    37     5    17    1
    38     5     4    1
    39    16    14   ar
    40    16     4    1
    41    32    29    1
    42    32    33    1
    43    17    18    1
    44    14    15    1
    45    29    31    1
    46    29    30    1
    47     4     1    2
