@<TRIPOS>MOLECULE
7108916.cif
 43 45 0 0 0
SMALL
GASTEIGER

@<TRIPOS>ATOM
      1 S           0.5303    3.5934    9.9160 S.3     1  LIG1       -0.1285
      2 C           2.0656    4.3735    9.7599 C.2     1  LIG1        0.0043
      3 C           3.0724    4.4474   10.8931 C.3     1  LIG1        0.0228
      4 H           2.6782    4.9244   11.6524 H       1  LIG1        0.0407
      5 C           2.5270    4.9227    8.6086 C.2     1  LIG1        0.0345
      6 C           3.5528    3.0804   11.3442 C.ar    1  LIG1       -0.0390
      7 C           3.7868    2.0689   10.4327 C.ar    1  LIG1       -0.0580
      8 H           3.6026    2.2085    9.5321 H       1  LIG1        0.0620
      9 C           1.8845    4.9613    7.2789 C.ar    1  LIG1       -0.0136
     10 C           3.8380    2.8522   12.6756 C.ar    1  LIG1       -0.0580
     11 H           3.6903    3.5246   13.3002 H       1  LIG1        0.0620
     12 O           4.4737    6.2125    8.0872 O.2     1  LIG1       -0.2920
     13 O           0.2728    4.9761    3.4417 O.3     1  LIG1       -0.4951
     14 C           3.8173    5.5483    8.8669 C.2     1  LIG1        0.1654
     15 C           0.5814    5.3636    7.0857 C.ar    1  LIG1       -0.0504
     16 H           0.0735    5.6222    7.8209 H       1  LIG1        0.0625
     17 C           4.2907    0.8547   10.8455 C.ar    1  LIG1       -0.0615
     18 H           4.4449    0.1814   10.2226 H       1  LIG1        0.0618
     19 C           2.0442    4.6107    4.9008 C.ar    1  LIG1       -0.0194
     20 H           2.5472    4.3529    4.1629 H       1  LIG1        0.0654
     21 C           0.7437    5.0048    4.7318 C.ar    1  LIG1        0.1201
     22 C           4.5654    0.6346   12.1683 C.ar    1  LIG1       -0.0617
     23 H           4.9019   -0.1872   12.4441 H       1  LIG1        0.0618
     24 C           4.3419    1.6297   13.0879 C.ar    1  LIG1       -0.0615
     25 H           4.5280    1.4835   13.9874 H       1  LIG1        0.0618
     26 C           0.0064    5.3923    5.8283 C.ar    1  LIG1       -0.0194
     27 H          -0.8748    5.6731    5.7239 H       1  LIG1        0.0654
     28 C           2.6110    4.5927    6.1538 C.ar    1  LIG1       -0.0504
     29 H           3.4967    4.3283    6.2498 H       1  LIG1        0.0625
     30 C           0.3116    3.3546   11.6968 C.3     1  LIG1       -0.0048
     31 H           0.9447    2.6962   12.0227 H       1  LIG1        0.0377
     32 H           0.4707    4.1887   12.1650 H       1  LIG1        0.0377
     33 C           4.2124    5.2823   10.2993 C.3     1  LIG1        0.0218
     34 H           4.3154    6.1156   10.7852 H       1  LIG1        0.0354
     35 H           5.0501    4.7938   10.3371 H       1  LIG1        0.0354
     36 C          -1.0911    2.8850   11.9537 C.3     1  LIG1       -0.0559
     37 H          -1.7102    3.5631   11.6758 H       1  LIG1        0.0238
     38 H          -1.2043    2.7118   12.8911 H       1  LIG1        0.0238
     39 H          -1.2541    2.0796   11.4567 H       1  LIG1        0.0238
     40 C          -1.0121    5.5278    3.2000 C.3     1  LIG1        0.0788
     41 H          -1.6776    4.9991    3.6481 H       1  LIG1        0.0660
     42 H          -1.1872    5.5286    2.2560 H       1  LIG1        0.0660
     43 H          -1.0407    6.4276    3.5324 H       1  LIG1        0.0660
@<TRIPOS>BOND
     1    42    40    1
     2    40    13    1
     3    40    43    1
     4    40    41    1
     5    13    21    1
     6    20    19    1
     7    21    19   ar
     8    21    26   ar
     9    19    28   ar
    10    27    26    1
    11    26    15   ar
    12    28    29    1
    13    28     9   ar
    14    15     9   ar
    15    15    16    1
    16     9     5    1
    17    12    14    2
    18     5    14    1
    19     5     2    2
    20    14    33    1
    21     8     7    1
    22     2     1    1
    23     2     3    1
    24     1    30    1
    25    18    17    1
    26    33    35    1
    27    33    34    1
    28    33     3    1
    29     7    17   ar
    30     7     6   ar
    31    17    22   ar
    32     3     6    1
    33     3     4    1
    34     6    10   ar
    35    39    36    1
    36    37    36    1
    37    30    36    1
    38    30    31    1
    39    30    32    1
    40    36    38    1
    41    22    23    1
    42    22    24   ar
    43    10    24   ar
    44    10    11    1
    45    24    25    1
