@<TRIPOS>MOLECULE
?
 50 52 0 0 0
SMALL
GASTEIGER

@<TRIPOS>ATOM
      1 CL          7.9894    0.2873    4.3276 Cl      1  LIG1       -0.0835
      2 P           4.8137   -2.9286    1.3275 P.3     1  LIG1        0.3689
      3 O           1.7452    0.3222   -0.5774 O.2     1  LIG1       -0.2522
      4 O           6.0093   -2.4872    0.5986 O.2     1  LIG1       -0.2555
      5 O           3.8364   -3.8473    0.5298 O.3     1  LIG1       -0.3094
      6 O           5.0661   -3.6334    2.6879 O.3     1  LIG1       -0.3094
      7 O          -0.9734    5.1079    3.6207 O.3     1  LIG1       -0.4951
      8 F           1.9483   -0.6993    3.0989 F       1  LIG1       -0.1673
      9 F           2.0678   -2.8109    2.7169 F       1  LIG1       -0.1673
     10 F           3.4128   -1.8869    4.1239 F       1  LIG1       -0.1673
     11 N           3.0216   -1.1083    0.6099 N.am    1  LIG1       -0.2719
     12 H           2.5581   -1.7599    0.2682 H       1  LIG1        0.1520
     13 N           3.3088    1.2091    0.8265 N.am    1  LIG1       -0.2509
     14 C           6.5892    0.5956    3.3517 C.ar    1  LIG1        0.0414
     15 C           5.7872   -0.4710    2.9963 C.ar    1  LIG1       -0.0355
     16 H           5.9893   -1.3337    3.3090 H       1  LIG1        0.0636
     17 C           4.6793   -0.2721    2.1744 C.ar    1  LIG1        0.0192
     18 C           3.7888   -1.4382    1.7935 C.3     1  LIG1        0.2597
     19 C           2.6360    0.1537    0.2514 C.2     1  LIG1        0.3081
     20 C           4.3786    1.0152    1.7087 C.ar    1  LIG1        0.0443
     21 C           5.1828    2.0835    2.1244 C.ar    1  LIG1       -0.0385
     22 H           4.9699    2.9563    1.8484 H       1  LIG1        0.0637
     23 C           6.2874    1.8754    2.9352 C.ar    1  LIG1       -0.0416
     24 H           6.8256    2.5993    3.1994 H       1  LIG1        0.0633
     25 C           2.8062   -1.7222    2.9523 C.3     1  LIG1        0.4264
     26 C           4.0498   -4.1925   -0.8625 C.3     1  LIG1        0.0458
     27 H           4.6298   -3.5329   -1.2747 H       1  LIG1        0.0529
     28 H           3.1977   -4.2079   -1.3256 H       1  LIG1        0.0529
     29 H           4.4651   -5.0678   -0.9183 H       1  LIG1        0.0529
     30 C           4.7668   -4.9935    3.0517 C.3     1  LIG1        0.0458
     31 H           3.8411   -5.1890    2.8391 H       1  LIG1        0.0529
     32 H           4.9118   -5.1132    4.0041 H       1  LIG1        0.0529
     33 H           5.3459   -5.5946    2.5571 H       1  LIG1        0.0529
     34 C           2.9259    2.5493    0.3675 C.3     1  LIG1        0.0463
     35 H           2.5523    2.4793   -0.5365 H       1  LIG1        0.0518
     36 H           3.7296    3.1078    0.3152 H       1  LIG1        0.0518
     37 C           1.9123    3.2339    1.2647 C.ar    1  LIG1       -0.0294
     38 C           1.2735    2.5918    2.3193 C.ar    1  LIG1       -0.0536
     39 H           1.4981    1.7015    2.5219 H       1  LIG1        0.0622
     40 C           0.3119    3.2396    3.0756 C.ar    1  LIG1       -0.0196
     41 H          -0.1124    2.7865    3.7809 H       1  LIG1        0.0654
     42 C          -0.0285    4.5553    2.7964 C.ar    1  LIG1        0.1201
     43 C           0.5867    5.2149    1.7458 C.ar    1  LIG1       -0.0196
     44 H           0.3566    6.1030    1.5429 H       1  LIG1        0.0654
     45 C           1.5483    4.5489    0.9954 C.ar    1  LIG1       -0.0536
     46 H           1.9651    5.0007    0.2839 H       1  LIG1        0.0622
     47 C          -1.3006    6.4747    3.4206 C.3     1  LIG1        0.0788
     48 H          -0.5068    7.0192    3.5459 H       1  LIG1        0.0660
     49 H          -1.9796    6.7412    4.0609 H       1  LIG1        0.0660
     50 H          -1.6386    6.5973    2.5199 H       1  LIG1        0.0660
@<TRIPOS>BOND
     1    28    26    1
     2    27    26    1
     3    29    26    1
     4    26     5    1
     5     3    19    2
     6    35    34    1
     7    19    11   am
     8    19    13   am
     9    12    11    1
    10    46    45    1
    11    36    34    1
    12    34    13    1
    13    34    37    1
    14     5     2    1
    15     4     2    2
    16    11    18    1
    17    13    20    1
    18    45    37   ar
    19    45    43   ar
    20    37    38   ar
    21     2    18    1
    22     2     6    1
    23    44    43    1
    24    20    21   ar
    25    20    17   ar
    26    43    42   ar
    27    18    17    1
    28    18    25    1
    29    22    21    1
    30    21    23   ar
    31    17    15   ar
    32    38    39    1
    33    38    40   ar
    34    50    47    1
    35    33    30    1
    36     6    30    1
    37     9    25    1
    38    42    40   ar
    39    42     7    1
    40    31    30    1
    41    23    24    1
    42    23    14   ar
    43    25     8    1
    44    25    10    1
    45    15    16    1
    46    15    14   ar
    47    30    32    1
    48    40    41    1
    49    14     1    1
    50    47    48    1
    51    47     7    1
    52    47    49    1
