@<TRIPOS>MOLECULE
?
 122 128 0 0 0
SMALL
GASTEIGER

@<TRIPOS>ATOM
      1 O           6.6378   -1.9637   15.5595 O.2     1  LIG1       -0.2713
      2 O           8.8163    1.9527   16.4043 O.2     1  LIG1       -0.2717
      3 O           8.0591   -0.7200   18.4129 O.3     1  LIG1       -0.3438
      4 O           1.3652    5.4665    3.8606 O.3     2  LIG2       -0.3438
      5 O           3.0437    2.6220    4.5447 O.2     2  LIG2       -0.2713
      6 O           0.7178    5.4807    7.2280 O.2     2  LIG2       -0.2717
      7 N           7.6414    0.0597   15.8983 N.am    1  LIG1       -0.2051
      8 N           1.8293    3.8797    6.0234 N.am    2  LIG2       -0.2051
      9 C           8.3645    0.6163   12.8648 C.3     1  LIG1       -0.0109
     10 C           9.2345   -0.4417   13.5478 C.3     1  LIG1       -0.0560
     11 H           8.6835   -1.2206   13.7743 H       1  LIG1        0.0238
     12 H           9.6233   -0.0665   14.3660 H       1  LIG1        0.0238
     13 H           9.9535   -0.7154   12.9408 H       1  LIG1        0.0238
     14 C           7.9663    0.0415   11.4970 C.3     1  LIG1       -0.0560
     15 H           8.7710   -0.2434   11.0159 H       1  LIG1        0.0238
     16 H           7.5003    0.7294   10.9759 H       1  LIG1        0.0238
     17 H           7.3730   -0.7282   11.6255 H       1  LIG1        0.0238
     18 C           9.2152    1.8846   12.6505 C.3     1  LIG1       -0.0560
     19 H           9.4715    2.2563   13.5205 H       1  LIG1        0.0238
     20 H           8.6937    2.5475   12.1532 H       1  LIG1        0.0238
     21 H          10.0215    1.6551   12.1432 H       1  LIG1        0.0238
     22 C           7.0934    1.0235   13.6372 C.ar    1  LIG1       -0.0201
     23 C           6.1436    1.8059   12.9596 C.ar    1  LIG1       -0.0560
     24 H           6.3074    2.0147   12.0473 H       1  LIG1        0.0621
     25 C           4.9879    2.2888   13.5365 C.ar    1  LIG1       -0.0577
     26 H           4.3916    2.8152   13.0167 H       1  LIG1        0.0621
     27 C           4.6780    2.0168   14.8723 C.ar    1  LIG1       -0.0402
     28 C           5.6023    1.2412   15.5585 C.ar    1  LIG1       -0.0359
     29 H           5.4282    1.0235   16.4668 H       1  LIG1        0.0639
     30 C           6.7728    0.7693   14.9722 C.ar    1  LIG1        0.0480
     31 C           3.3824    2.4853   15.5393 C.3     1  LIG1       -0.0126
     32 C           2.3468    1.3714   15.4054 C.3     1  LIG1       -0.0560
     33 H           2.2174    1.1572   14.4579 H       1  LIG1        0.0238
     34 H           1.4965    1.6681   15.7912 H       1  LIG1        0.0238
     35 H           2.6615    0.5736   15.8811 H       1  LIG1        0.0238
     36 C           2.8352    3.7535   14.8695 C.3     1  LIG1       -0.0560
     37 H           2.6268    3.5635   13.9302 H       1  LIG1        0.0238
     38 H           3.5087    4.4646   14.9177 H       1  LIG1        0.0238
     39 H           2.0220    4.0427   15.3334 H       1  LIG1        0.0238
     40 C           3.6020    2.8059   17.0227 C.3     1  LIG1       -0.0560
     41 H           2.7718    3.1564   17.4083 H       1  LIG1        0.0238
     42 H           4.3120    3.4756   17.1105 H       1  LIG1        0.0238
     43 H           3.8622    1.9890   17.4982 H       1  LIG1        0.0238
     44 C           8.5606    0.8000   16.6509 C.2     1  LIG1        0.2582
     45 C           7.4042   -1.2883   16.1928 C.2     1  LIG1        0.2629
     46 C           9.1869   -0.0105   17.7771 C.3     1  LIG1        0.1481
     47 C          10.0061    0.8118   18.7250 C.3     1  LIG1       -0.0270
     48 H           9.4395    1.4970   19.1373 H       1  LIG1        0.0262
     49 H          10.7374    1.2435   18.2358 H       1  LIG1        0.0262
     50 H          10.3773    0.2326   19.4232 H       1  LIG1        0.0262
     51 C           9.7008   -1.3465   17.2122 C.3     1  LIG1        0.0268
     52 H          10.3475   -1.8221   17.7921 H       1  LIG1        0.0334
     53 H          10.0072   -1.3094   16.2709 H       1  LIG1        0.0334
     54 C           8.2320   -1.7713   17.3977 C.3     1  LIG1        0.1749
     55 C           7.8819   -3.1446   17.8756 C.ar    1  LIG1       -0.0068
     56 C           6.8438   -3.3378   18.7723 C.ar    1  LIG1       -0.0554
     57 H           6.3364   -2.5926   19.0714 H       1  LIG1        0.0621
     58 C           8.6084   -4.2361   17.4387 C.ar    1  LIG1       -0.0554
     59 H           9.3198   -4.1175   16.8206 H       1  LIG1        0.0621
     60 C           8.2963   -5.5065   17.9044 C.ar    1  LIG1       -0.0614
     61 H           8.7959   -6.2546   17.6002 H       1  LIG1        0.0618
     62 C           6.5372   -4.6080   19.2365 C.ar    1  LIG1       -0.0614
     63 H           5.8237   -4.7321   19.8509 H       1  LIG1        0.0618
     64 C           7.2728   -5.6914   18.8003 C.ar    1  LIG1       -0.0617
     65 H           7.0707   -6.5626   19.1193 H       1  LIG1        0.0618
     66 C           6.7121    4.8076    7.3607 C.3     2  LIG2       -0.0560
     67 H           6.9195    3.9013    7.0501 H       2  LIG2        0.0238
     68 H           7.5465    5.2971    7.5198 H       2  LIG2        0.0238
     69 H           6.1842    5.2744    6.6803 H       2  LIG2        0.0238
     70 C           5.4981    6.1408    9.1079 C.3     2  LIG2       -0.0560
     71 H           4.9079    6.5359    8.4333 H       2  LIG2        0.0238
     72 H           6.2991    6.6972    9.2069 H       2  LIG2        0.0238
     73 H           5.0260    6.0910    9.9664 H       2  LIG2        0.0238
     74 C           6.8086    4.1219    9.7510 C.3     2  LIG2       -0.0560
     75 H           6.3362    4.1266   10.6101 H       2  LIG2        0.0238
     76 H           7.6290    4.6513    9.8265 H       2  LIG2        0.0238
     77 H           7.0361    3.1999    9.5087 H       2  LIG2        0.0238
     78 C           5.9069    4.7286    8.6672 C.3     2  LIG2       -0.0126
     79 C           4.6507    3.8838    8.4455 C.ar    2  LIG2       -0.0402
     80 C           4.3059    2.7985    9.2370 C.ar    2  LIG2       -0.0577
     81 H           4.8683    2.5567    9.9644 H       2  LIG2        0.0621
     82 C           3.1583    2.0567    8.9924 C.ar    2  LIG2       -0.0560
     83 H           2.9656    1.3244    9.5647 H       2  LIG2        0.0621
     84 C           2.2722    2.3307    7.9480 C.ar    2  LIG2       -0.0201
     85 C           2.6296    3.4399    7.1602 C.ar    2  LIG2        0.0480
     86 C           3.7701    4.1842    7.4051 C.ar    2  LIG2       -0.0359
     87 H           3.9612    4.9267    6.8442 H       2  LIG2        0.0639
     88 C           1.0177    1.4616    7.7387 C.3     2  LIG2       -0.0109
     89 C          -0.2387    2.2809    8.0577 C.3     2  LIG2       -0.0560
     90 H          -0.2715    3.0686    7.4758 H       2  LIG2        0.0238
     91 H          -0.2134    2.5665    8.9950 H       2  LIG2        0.0238
     92 H          -1.0353    1.7300    7.9056 H       2  LIG2        0.0238
     93 C           1.0235    0.2407    8.6702 C.3     2  LIG2       -0.0560
     94 H           0.2194   -0.2966    8.5093 H       2  LIG2        0.0238
     95 H           1.0346    0.5410    9.6026 H       2  LIG2        0.0238
     96 H           1.8201   -0.3020    8.4933 H       2  LIG2        0.0238
     97 C           0.9384    0.9074    6.3091 C.3     2  LIG2       -0.0560
     98 H           0.6901    1.6282    5.6928 H       2  LIG2        0.0238
     99 H           0.2642    0.1976    6.2705 H       2  LIG2        0.0238
    100 H           1.8110    0.5436    6.0506 H       2  LIG2        0.0238
    101 C           0.9364    4.9582    6.1624 C.2     2  LIG2        0.2582
    102 C           0.2689    5.3509    4.8445 C.3     2  LIG2        0.1481
    103 C          -0.5931    6.5606    4.9135 C.3     2  LIG2       -0.0270
    104 H          -0.0619    7.3235    5.2231 H       2  LIG2        0.0262
    105 H          -1.3309    6.4014    5.5389 H       2  LIG2        0.0262
    106 H          -0.9555    6.7552    4.0238 H       2  LIG2        0.0262
    107 C          -0.2080    4.0655    4.1455 C.3     2  LIG2        0.0268
    108 H          -0.8814    4.2049    3.4341 H       2  LIG2        0.0334
    109 H          -0.4638    3.3306    4.7573 H       2  LIG2        0.0334
    110 C           1.2553    4.0192    3.6528 C.3     2  LIG2        0.1749
    111 C           2.1522    3.4090    4.7402 C.2     2  LIG2        0.2629
    112 C           1.5550    3.5668    2.2587 C.ar    2  LIG2       -0.0068
    113 C           1.3752    2.2335    1.9197 C.ar    2  LIG2       -0.0554
    114 H           1.1216    1.6032    2.5846 H       2  LIG2        0.0621
    115 C           1.5675    1.8200    0.6045 C.ar    2  LIG2       -0.0614
    116 H           1.4509    0.9062    0.3718 H       2  LIG2        0.0618
    117 C           1.9282    2.7370   -0.3634 C.ar    2  LIG2       -0.0617
    118 H           2.0463    2.4543   -1.2633 H       2  LIG2        0.0618
    119 C           2.1162    4.0572   -0.0314 C.ar    2  LIG2       -0.0614
    120 H           2.3737    4.6831   -0.6976 H       2  LIG2        0.0618
    121 C           1.9314    4.4786    1.2859 C.ar    2  LIG2       -0.0554
    122 H           2.0631    5.3906    1.5152 H       2  LIG2        0.0621
@<TRIPOS>BOND
     1   118   117    1
     2   120   119    1
     3   117   119   ar
     4   117   115   ar
     5   119   121   ar
     6   116   115    1
     7   115   113   ar
     8   121   122    1
     9   121   112   ar
    10   113   112   ar
    11   113   114    1
    12   112   110    1
    13   108   107    1
    14   110     4    1
    15   110   107    1
    16   110   111    1
    17     4   102    1
    18   106   103    1
    19   107   109    1
    20   107   102    1
    21     5   111    2
    22   111     8   am
    23   102   103    1
    24   102   101    1
    25   103   104    1
    26   103   105    1
    27    98    97    1
    28     8   101   am
    29     8    85    1
    30   100    97    1
    31   101     6    2
    32    99    97    1
    33    97    88    1
    34    69    66    1
    35    87    86    1
    36    67    66    1
    37    85    86   ar
    38    85    84   ar
    39    66    68    1
    40    66    78    1
    41    86    79   ar
    42    90    89    1
    43    88    84    1
    44    88    89    1
    45    88    93    1
    46    92    89    1
    47    84    82   ar
    48    89    91    1
    49    71    70    1
    50    79    78    1
    51    79    80   ar
    52    96    93    1
    53    94    93    1
    54    78    70    1
    55    78    74    1
    56    93    95    1
    57    82    80   ar
    58    82    83    1
    59    70    72    1
    60    70    73    1
    61    80    81    1
    62    77    74    1
    63    74    76    1
    64    74    75    1
    65    16    14    1
    66    15    14    1
    67    14    17    1
    68    14     9    1
    69    24    23    1
    70    21    18    1
    71    20    18    1
    72    18     9    1
    73    18    19    1
    74     9    10    1
    75     9    22    1
    76    13    10    1
    77    23    25   ar
    78    23    22   ar
    79    26    25    1
    80    25    27   ar
    81    10    11    1
    82    10    12    1
    83    22    30   ar
    84    37    36    1
    85    33    32    1
    86    36    38    1
    87    36    39    1
    88    36    31    1
    89    27    31    1
    90    27    28   ar
    91    30    28   ar
    92    30     7    1
    93    32    31    1
    94    32    34    1
    95    32    35    1
    96    31    40    1
    97    28    29    1
    98     1    45    2
    99     7    45   am
   100     7    44   am
   101    45    54    1
   102    53    51    1
   103     2    44    2
   104    44    46    1
   105    59    58    1
   106    40    42    1
   107    40    41    1
   108    40    43    1
   109    51    54    1
   110    51    46    1
   111    51    52    1
   112    54    55    1
   113    54     3    1
   114    58    55   ar
   115    58    60   ar
   116    61    60    1
   117    46     3    1
   118    46    47    1
   119    55    56   ar
   120    60    64   ar
   121    49    47    1
   122    47    48    1
   123    47    50    1
   124    56    57    1
   125    56    62   ar
   126    64    65    1
   127    64    62   ar
   128    62    63    1
