@<TRIPOS>MOLECULE
?
 54 57 0 0 0
SMALL
GASTEIGER

@<TRIPOS>ATOM
      1 S           3.4157    2.3650    6.6647 S.3     1  LIG1       -0.0881
      2 S          10.3780    0.6500    9.7491 S.3     1  LIG1       -0.0881
      3 S          11.0456    1.1575    7.8940 S.3     1  LIG1       -0.0881
      4 S           9.9495    0.9915    0.1183 S.3     1  LIG1       -0.0881
      5 S           8.1377    1.8117    0.5450 S.3     1  LIG1       -0.0881
      6 S           1.9441    2.0455    5.3127 S.3     1  LIG1       -0.0881
      7 C           4.6319    1.0025    6.3556 C.3     1  LIG1        0.0290
      8 C           5.7669    1.2180    7.3043 C.ar    1  LIG1       -0.0367
      9 C           5.9679    0.3647    8.3801 C.ar    1  LIG1       -0.0575
     10 C           7.0112    0.5727    9.2694 C.ar    1  LIG1       -0.0575
     11 C           7.8669    1.6567    9.1162 C.ar    1  LIG1       -0.0367
     12 C           7.6527    2.5158    8.0532 C.ar    1  LIG1       -0.0575
     13 C           6.6236    2.3056    7.1579 C.ar    1  LIG1       -0.0575
     14 C           9.0342    1.8595   10.0464 C.3     1  LIG1        0.0290
     15 C          10.0762    0.0688    6.7779 C.3     1  LIG1        0.0290
     16 C          10.3274    0.5044    5.3673 C.ar    1  LIG1       -0.0367
     17 C          11.2045   -0.2070    4.5516 C.ar    1  LIG1       -0.0575
     18 C          11.4451    0.2118    3.2407 C.ar    1  LIG1       -0.0575
     19 C          10.8486    1.3577    2.7428 C.ar    1  LIG1       -0.0367
     20 C          10.0065    2.0865    3.5724 C.ar    1  LIG1       -0.0575
     21 C           9.7487    1.6557    4.8674 C.ar    1  LIG1       -0.0575
     22 C          11.0905    1.7844    1.3267 C.3     1  LIG1        0.0290
     23 C           7.3924    0.6715    1.7751 C.3     1  LIG1        0.0290
     24 C           6.1301    1.3073    2.2790 C.ar    1  LIG1       -0.0367
     25 C           4.8815    0.7766    1.9548 C.ar    1  LIG1       -0.0575
     26 C           3.7279    1.3346    2.4456 C.ar    1  LIG1       -0.0575
     27 C           3.7691    2.4612    3.2506 C.ar    1  LIG1       -0.0367
     28 C           5.0021    3.0208    3.5411 C.ar    1  LIG1       -0.0575
     29 C           6.1624    2.4549    3.0646 C.ar    1  LIG1       -0.0575
     30 C           2.5149    3.0013    3.8645 C.3     1  LIG1        0.0290
     31 H           4.9049    1.0509    5.4223 H       1  LIG1        0.0433
     32 H           4.1493    0.2522    6.4831 H       1  LIG1        0.0433
     33 H           5.4338   -0.3205    8.4897 H       1  LIG1        0.0621
     34 H           7.1786   -0.0263    9.9700 H       1  LIG1        0.0621
     35 H           8.1695    3.2420    7.9237 H       1  LIG1        0.0621
     36 H           6.4715    2.9372    6.4593 H       1  LIG1        0.0621
     37 H           9.4411    2.8216    9.9818 H       1  LIG1        0.0433
     38 H           8.7802    1.6551   11.0267 H       1  LIG1        0.0433
     39 H          10.3841   -0.7987    6.9659 H       1  LIG1        0.0433
     40 H           9.2286    0.1419    6.9897 H       1  LIG1        0.0433
     41 H          11.5881   -0.9563    4.8761 H       1  LIG1        0.0621
     42 H          12.0056   -0.3415    2.6597 H       1  LIG1        0.0621
     43 H           9.6350    2.9530    3.2336 H       1  LIG1        0.0621
     44 H           9.1138    2.1490    5.3550 H       1  LIG1        0.0621
     45 H          12.0088    1.4502    1.0172 H       1  LIG1        0.0433
     46 H          10.9077    2.7533    1.2349 H       1  LIG1        0.0433
     47 H           7.3571   -0.2102    1.3694 H       1  LIG1        0.0433
     48 H           7.9696    0.5202    2.3906 H       1  LIG1        0.0433
     49 H           4.8927    0.0263    1.4248 H       1  LIG1        0.0621
     50 H           2.9051    0.9458    2.2560 H       1  LIG1        0.0621
     51 H           4.9959    3.7779    4.0569 H       1  LIG1        0.0621
     52 H           6.9720    2.7953    3.2138 H       1  LIG1        0.0621
     53 H           2.5553    3.9093    4.1004 H       1  LIG1        0.0433
     54 H           1.9046    2.8794    3.2059 H       1  LIG1        0.0433
@<TRIPOS>BOND
     1     4     5    1
     2     4    22    1
     3     5    23    1
     4    45    22    1
     5    46    22    1
     6    22    19    1
     7    47    23    1
     8    49    25    1
     9    23    24    1
    10    23    48    1
    11    25    24   ar
    12    25    26   ar
    13    50    26    1
    14    24    29   ar
    15    26    27   ar
    16    42    18    1
    17    19    18   ar
    18    19    20   ar
    19    29    52    1
    20    29    28   ar
    21    54    30    1
    22    43    20    1
    23    18    17   ar
    24    27    28   ar
    25    27    30    1
    26    28    51    1
    27    20    21   ar
    28    30    53    1
    29    30     6    1
    30    17    41    1
    31    17    16   ar
    32    21    44    1
    33    21    16   ar
    34     6     1    1
    35    16    15    1
    36    31     7    1
    37     7    32    1
    38     7     1    1
    39     7     8    1
    40    36    13    1
    41    15    39    1
    42    15    40    1
    43    15     3    1
    44    13     8   ar
    45    13    12   ar
    46     8     9   ar
    47     3     2    1
    48    35    12    1
    49    12    11   ar
    50     9    33    1
    51     9    10   ar
    52    11    10   ar
    53    11    14    1
    54    10    34    1
    55     2    14    1
    56    37    14    1
    57    14    38    1
