@<TRIPOS>MOLECULE
?
 36 37 0 0 0
SMALL
GASTEIGER

@<TRIPOS>ATOM
      1 C           1.9634    6.9728    5.3736 C.ar    1  LIG1       -0.0571
      2 H           2.1752    6.2549    4.8215 H       1  LIG1        0.0621
      3 C           2.7046    8.1036    5.2977 C.ar    1  LIG1       -0.0614
      4 H           3.4295    8.1487    4.7177 H       1  LIG1        0.0618
      5 C           2.3703    9.2140    6.1055 C.ar    1  LIG1       -0.0612
      6 H           2.8623   10.0000    6.0333 H       1  LIG1        0.0618
      7 C           1.3525    9.1463    6.9741 C.ar    1  LIG1       -0.0537
      8 H           1.1562    9.8905    7.4959 H       1  LIG1        0.0624
      9 C           0.5574    7.9662    7.1244 C.ar    1  LIG1       -0.0135
     10 C           0.8657    6.8512    6.2786 C.ar    1  LIG1       -0.0274
     11 C           0.0951    5.6728    6.3535 C.3     1  LIG1        0.0430
     12 C           0.4677    4.5208    5.4993 C.2     1  LIG1       -0.0707
     13 H           1.2293    4.0615    5.7711 H       1  LIG1        0.0582
     14 C          -0.0925    4.0609    4.4487 C.2     1  LIG1       -0.0576
     15 H          -0.8587    4.5008    4.1586 H       1  LIG1        0.0621
     16 C           0.3477    2.9027    3.6443 C.ar    1  LIG1       -0.0251
     17 C          -0.3413    2.5031    2.4940 C.ar    1  LIG1       -0.0511
     18 H          -1.0842    2.9870    2.2148 H       1  LIG1        0.0625
     19 C           0.0623    1.4073    1.7722 C.ar    1  LIG1       -0.0194
     20 H          -0.3999    1.1715    1.0000 H       1  LIG1        0.0654
     21 C           1.1364    0.6574    2.1736 C.ar    1  LIG1        0.1205
     22 C           1.8388    1.0280    3.2991 C.ar    1  LIG1       -0.0194
     23 H           2.5769    0.5337    3.5750 H       1  LIG1        0.0654
     24 C           1.4385    2.1359    4.0114 C.ar    1  LIG1       -0.0511
     25 H           1.9207    2.3792    4.7682 H       1  LIG1        0.0625
     26 C           2.5585   -1.2447    1.8661 C.3     1  LIG1        0.0893
     27 H           2.3777   -1.5636    2.7652 H       1  LIG1        0.0696
     28 H           3.3585   -0.6964    1.8978 H       1  LIG1        0.0696
     29 C           2.7922   -2.3902    0.9842 C.3     1  LIG1       -0.0215
     30 H           2.9249   -2.0793    0.0764 H       1  LIG1        0.0295
     31 H           2.0156   -2.9721    0.9943 H       1  LIG1        0.0295
     32 C           4.0155   -3.1672    1.4424 C.3     1  LIG1       -0.0622
     33 H           4.7860   -2.5950    1.4165 H       1  LIG1        0.0231
     34 H           4.1548   -3.9176    0.8588 H       1  LIG1        0.0231
     35 H           3.8793   -3.4797    2.3401 H       1  LIG1        0.0231
     36 O           1.4539   -0.4464    1.4139 O.3     1  LIG1       -0.4920
@<TRIPOS>BOND
     1    30    29    1
     2    34    32    1
     3    29    31    1
     4    29    32    1
     5    29    26    1
     6    20    19    1
     7    36    26    1
     8    36    21    1
     9    33    32    1
    10    32    35    1
    11    19    21   ar
    12    19    17   ar
    13    26    28    1
    14    26    27    1
    15    21    22   ar
    16    18    17    1
    17    17    16   ar
    18    22    23    1
    19    22    24   ar
    20    16    24   ar
    21    16    14    1
    22    24    25    1
    23    15    14    1
    24    14    12    2
    25     4     3    1
    26     2     1    1
    27     3     1   ar
    28     3     5   ar
    29     1    10   ar
    30    12    13    1
    31    12    11    1
    32     6     5    1
    33     5     7   ar
    34    10    11    1
    35    10     9   ar
    36     7     9   ar
    37     7     8    1
