@<TRIPOS>MOLECULE
2-(Pyridin-1-ium-1-yl)-1,1-bis((trifluoromethyl)sulfonyl)ethan-1-ide
 145 145 0 0 0
SMALL
GASTEIGER

@<TRIPOS>ATOM
      1 C           3.5790    0.2161   36.8768 C.2     1  LIG1       -0.0070
      2 H           3.4631    0.7287   37.6667 H       1  LIG1        0.0780
      3 C           3.7903   -1.1358   36.9703 C.2     1  LIG1       -0.0623
      4 H           3.8117   -1.5617   37.8198 H       1  LIG1        0.0591
      5 C           3.9721   -1.8718   35.8104 C.3     1  LIG1        0.0078
      6 H           4.1171   -2.8092   35.8546 H       1  LIG1        0.0395
      7 C           3.9405   -1.2256   34.5857 C.2     1  LIG1       -0.0623
      8 H           4.0726   -1.7152   33.7830 H       1  LIG1        0.0591
      9 C           3.7185    0.1232   34.5402 C.2     1  LIG1       -0.0070
     10 H           3.6953    0.5700   33.7022 H       1  LIG1        0.0780
     11 C           3.2823    2.3081   35.6143 C.3     1  LIG1        0.0658
     12 H           3.1214    2.6453   36.5309 H       1  LIG1        0.0507
     13 H           4.0955    2.7539   35.2676 H       1  LIG1        0.0507
     14 C           2.1193    2.6860   34.7503 C.3     1  LIG1        0.2823
     15 C          -0.0885    0.9145   34.6146 C.3     1  LIG1        0.5239
     16 C           2.7832    5.2311   33.7490 C.3     1  LIG1        0.5239
     17 C           6.7677   10.8192   31.2521 C.2     2  LIG2       -0.0070
     18 H           6.6240   10.3191   30.4566 H       2  LIG2        0.0780
     19 C           6.3930   12.1408   31.3078 C.2     2  LIG2       -0.0623
     20 H           5.9875   12.5552   30.5545 H       2  LIG2        0.0591
     21 C           6.6119   12.8642   32.4695 C.3     2  LIG2        0.0078
     22 H           6.3502   13.7756   32.5239 H       2  LIG2        0.0395
     23 C           7.2142   12.2452   33.5457 C.2     2  LIG2       -0.0623
     24 H           7.3865   12.7306   34.3445 H       2  LIG2        0.0591
     25 C           7.5622   10.9163   33.4529 C.2     2  LIG2       -0.0070
     26 H           7.9648   10.4820   34.1956 H       2  LIG2        0.0780
     27 C           7.6280    8.7366   32.2151 C.3     2  LIG2        0.0658
     28 H           6.7739    8.2470   32.3155 H       2  LIG2        0.0507
     29 H           7.9675    8.5528   31.3031 H       2  LIG2        0.0507
     30 C           8.6059    8.1843   33.2003 C.3     2  LIG2        0.2823
     31 C           7.3990    5.8219   34.2190 C.3     2  LIG2        0.5239
     32 C          11.1281    9.4443   33.5567 C.3     2  LIG2        0.5239
     33 C          12.4170    4.3041   37.5493 C.2     3  LIG3       -0.0070
     34 H          12.8773    4.7384   38.2579 H       3  LIG3        0.0780
     35 C          12.2002    2.9428   37.6067 C.2     3  LIG3       -0.0623
     36 H          12.5118    2.4386   38.3473 H       3  LIG3        0.0591
     37 C          11.5275    2.3217   36.5782 C.3     3  LIG3        0.0078
     38 H          11.3648    1.3863   36.6075 H       3  LIG3        0.0395
     39 C          11.0879    3.0775   35.4952 C.2     3  LIG3       -0.0623
     40 H          10.6265    2.6620   34.7742 H       3  LIG3        0.0591
     41 C          11.3275    4.4252   35.4773 C.2     3  LIG3       -0.0070
     42 H          11.0321    4.9471   34.7401 H       3  LIG3        0.0780
     43 C          12.1365    6.5370   36.4216 C.3     3  LIG3        0.0658
     44 H          12.5360    6.7615   35.5441 H       3  LIG3        0.0507
     45 H          11.2336    6.9421   36.4501 H       3  LIG3        0.0507
     46 C          12.9641    7.1717   37.4863 C.3     3  LIG3        0.2823
     47 C          11.4385    9.2502   38.6948 C.3     3  LIG3        0.5239
     48 C          15.6812    6.4399   37.8309 C.3     3  LIG3        0.5239
     49 C           8.0777    6.1435   38.6995 C.2     4  LIG4       -0.0070
     50 H           8.1470    5.7071   37.8581 H       4  LIG4        0.0780
     51 C           8.0184    7.5110   38.7522 C.2     4  LIG4       -0.0623
     52 H           8.0388    8.0246   37.9517 H       4  LIG4        0.0591
     53 C           7.9289    8.1374   39.9854 C.3     4  LIG4        0.0078
     54 H           7.8790    9.0852   40.0403 H       4  LIG4        0.0395
     55 C           7.9136    7.3701   41.1411 C.2     4  LIG4       -0.0623
     56 H           7.8671    7.7876   41.9927 H       4  LIG4        0.0591
     57 C           7.9672    6.0025   41.0407 C.2     4  LIG4       -0.0070
     58 H           7.9534    5.4701   41.8268 H       4  LIG4        0.0780
     59 C           8.0278    3.9063   39.7450 C.3     4  LIG4        0.0658
     60 H           8.8768    3.5994   39.3384 H       4  LIG4        0.0507
     61 H           7.9755    3.5305   40.6613 H       4  LIG4        0.0507
     62 C           6.8826    3.3823   38.9339 C.3     4  LIG4        0.2823
     63 C           4.4836    4.8949   38.9258 C.3     4  LIG4        0.5239
     64 C           7.6892    0.9353   37.7905 C.3     4  LIG4        0.5239
     65 C           0.8749   11.6021   39.8510 C.2     5  LIG5       -0.0070
     66 H           0.7833   11.0969   39.0534 H       5  LIG5        0.0780
     67 C           1.0296   12.9686   39.7846 C.2     5  LIG5       -0.0623
     68 H           1.0511   13.4071   38.9428 H       5  LIG5        0.0591
     69 C           1.1541   13.6983   40.9578 C.3     5  LIG5        0.0078
     70 H           1.2751   14.6399   40.9250 H       5  LIG5        0.0395
     71 C           1.1019   13.0438   42.1735 C.2     5  LIG5       -0.0623
     72 H           1.1725   13.5302   42.9881 H       5  LIG5        0.0591
     73 C           0.9453   11.6762   42.1892 C.2     5  LIG5       -0.0070
     74 H           0.9007   11.2190   43.0221 H       5  LIG5        0.0780
     75 C           0.6627    9.4736   41.0879 C.3     5  LIG5        0.0658
     76 H          -0.2705    9.2763   41.3504 H       5  LIG5        0.0507
     77 H           0.8054    9.1051   40.1806 H       5  LIG5        0.0507
     78 C           1.5898    8.7850   42.0404 C.3     5  LIG5        0.2823
     79 C           4.3011    9.6500   42.1420 C.3     5  LIG5        0.5239
     80 C           0.3647    6.5558   43.3084 C.3     5  LIG5        0.5239
     81 F           3.8059    5.2844   34.6108 F       1  LIG1       -0.1502
     82 F           3.1300    5.9228   32.6677 F       1  LIG1       -0.1502
     83 F           1.7414    5.8230   34.3165 F       1  LIG1       -0.1502
     84 F           0.7513   -0.0889   34.8120 F       1  LIG1       -0.1502
     85 F          -1.2511    0.6051   35.1834 F       1  LIG1       -0.1502
     86 F          -0.2821    1.0443   33.3062 F       1  LIG1       -0.1502
     87 F           8.3861    5.0023   33.8613 F       2  LIG2       -0.1502
     88 F           6.7794    5.3004   35.2740 F       2  LIG2       -0.1502
     89 F           6.5209    5.8718   33.2143 F       2  LIG2       -0.1502
     90 F          12.3965    9.4232   33.1794 F       2  LIG2       -0.1502
     91 F          10.6065   10.6071   33.1913 F       2  LIG2       -0.1502
     92 F          11.0824    9.3662   34.8792 F       2  LIG2       -0.1502
     93 F          10.6017    9.2360   37.6522 F       3  LIG3       -0.1502
     94 F          10.7390    9.5810   39.7842 F       3  LIG3       -0.1502
     95 F          12.3454   10.2022   38.4791 F       3  LIG3       -0.1502
     96 F          15.4271    5.2246   37.3387 F       3  LIG3       -0.1502
     97 F          15.5877    6.3683   39.1555 F       3  LIG3       -0.1502
     98 F          16.9369    6.7566   37.5127 F       3  LIG3       -0.1502
     99 F           4.3882    4.8558   37.6020 F       4  LIG4       -0.1502
    100 F           3.2556    4.9619   39.4337 F       4  LIG4       -0.1502
    101 F           5.1292    6.0048   39.2631 F       4  LIG4       -0.1502
    102 F           8.6978    0.8914   38.6565 F       4  LIG4       -0.1502
    103 F           6.6829    0.2275   38.2950 F       4  LIG4       -0.1502
    104 F           8.0962    0.3396   36.6632 F       4  LIG4       -0.1502
    105 F           3.9084   10.8653   41.7732 F       5  LIG5       -0.1502
    106 F           5.5186    9.4442   41.6422 F       5  LIG5       -0.1502
    107 F           4.3945    9.6362   43.4675 F       5  LIG5       -0.1502
    108 F          -0.3513    6.1945   44.3829 F       5  LIG5       -0.1502
    109 F          -0.4316    6.4823   42.2433 F       5  LIG5       -0.1502
    110 F           1.3442    5.6696   43.1570 F       5  LIG5       -0.1502
    111 N           3.5326    0.8259   35.6802 N.pl3   1  LIG1       -0.3093
    112 N           7.3396   10.2281   32.3244 N.pl3   2  LIG2       -0.3093
    113 N          11.9819    5.0209   36.5016 N.pl3   3  LIG3       -0.3093
    114 N           8.0393    5.4096   39.8318 N.pl3   4  LIG4       -0.3093
    115 N           0.8536   10.9803   41.0429 N.pl3   5  LIG5       -0.3093
    116 O           3.6737    3.0465   32.7524 O.2     1  LIG1       -0.1640
    117 O           1.2555    3.5780   32.4652 O.2     1  LIG1       -0.1640
    118 O           0.6598    2.1402   36.7492 O.2     1  LIG1       -0.1640
    119 O          -0.3968    3.4599   34.9179 O.2     1  LIG1       -0.1640
    120 O           9.0451    7.2571   35.6011 O.2     2  LIG2       -0.1640
    121 O           6.8174    8.1883   35.0077 O.2     2  LIG2       -0.1640
    122 O          10.8777    6.8850   33.3207 O.2     2  LIG2       -0.1640
    123 O          10.3673    8.3323   31.3610 O.2     2  LIG2       -0.1640
    124 O          11.0809    6.7399   39.1393 O.2     3  LIG3       -0.1640
    125 O          13.1370    7.8322   40.0109 O.2     3  LIG3       -0.1640
    126 O          14.7530    7.5775   35.7151 O.2     3  LIG3       -0.1640
    127 O          14.9028    8.8903   37.8321 O.2     3  LIG3       -0.1640
    128 O           4.4838    2.3297   39.1346 O.2     4  LIG4       -0.1640
    129 O           5.4408    3.6909   40.9939 O.2     4  LIG4       -0.1640
    130 O           8.4010    3.2260   36.8840 O.2     4  LIG4       -0.1640
    131 O           6.0260    2.5201   36.6339 O.2     4  LIG4       -0.1640
    132 O           3.2109    8.5498   40.0956 O.2     5  LIG5       -0.1640
    133 O           3.6444    7.1589   42.1203 O.2     5  LIG5       -0.1640
    134 O          -0.1842    9.0095   43.8469 O.2     5  LIG5       -0.1640
    135 O           2.0359    8.1052   44.5211 O.2     5  LIG5       -0.1640
    136 S           0.5528    2.4788   35.3540 S.O2    1  LIG1        0.0932
    137 S           2.4187    3.4818   33.3027 S.O2    1  LIG1        0.0932
    138 S           8.0196    7.5040   34.6261 S.O2    2  LIG2        0.0932
    139 S          10.2306    8.0348   32.7587 S.O2    2  LIG2        0.0932
    140 S          12.2174    7.5980   38.9376 S.O2    3  LIG3        0.0932
    141 S          14.5316    7.6960   37.1299 S.O2    3  LIG3        0.0932
    142 S           5.3292    3.3925   39.5921 S.O2    4  LIG4        0.0932
    143 S           7.1960    2.6734   37.4466 S.O2    4  LIG4        0.0932
    144 S           3.1429    8.3575   41.5137 S.O2    5  LIG5        0.0932
    145 S           1.0114    8.2682   43.5324 S.O2    5  LIG5        0.0932
@<TRIPOS>BOND
     1    18    17    1
     2    20    19    1
     3    17    19    2
     4    17   112    1
     5    29    27    1
     6    19    21    1
     7   123   139    2
     8    27    28    1
     9    27   112    1
    10    27    30    1
    11   112    25    1
    12   117   137    2
    13    21    22    1
    14    21    23    1
    15    82    16    1
    16   116   137    2
    17   139    30    1
    18   139   122    2
    19   139    32    1
    20    90    32    1
    21    91    32    1
    22    30   138    1
    23    89    31    1
    24   137    16    1
    25   137    14    1
    26    86    15    1
    27    25    23    2
    28    25    26    1
    29    23    24    1
    30    32    92    1
    31    10     9    1
    32    16    83    1
    33    16    81    1
    34     8     7    1
    35    87    31    1
    36    31   138    1
    37    31    88    1
    38     9     7    2
    39     9   111    1
    40     7     5    1
    41    15    84    1
    42    15    85    1
    43    15   136    1
    44   138   121    2
    45   138   120    2
    46    42    41    1
    47    14   136    1
    48    14    11    1
    49    40    39    1
    50   119   136    2
    51    13    11    1
    52   136   118    2
    53    41    39    2
    54    41   113    1
    55    39    37    1
    56    44    43    1
    57    11   111    1
    58    11    12    1
    59   111     1    1
    60   126   141    2
    61     5     6    1
    62     5     3    1
    63    43    45    1
    64    43   113    1
    65    43    46    1
    66   113    33    1
    67    37    38    1
    68    37    35    1
    69   131   143    2
    70   104    64    1
    71     1     3    2
    72     1     2    1
    73   130   143    2
    74     3     4    1
    75   141    46    1
    76   141    48    1
    77   141   127    2
    78    96    48    1
    79   143    64    1
    80   143    62    1
    81    46   140    1
    82    98    48    1
    83    33    35    2
    84    33    34    1
    85    99    63    1
    86    35    36    1
    87    93    47    1
    88    64   103    1
    89    64   102    1
    90    48    97    1
    91    50    49    1
    92    52    51    1
    93    95    47    1
    94    47   140    1
    95    47    94    1
    96    49    51    2
    97    49   114    1
    98    51    53    1
    99    63   101    1
   100    63   100    1
   101    63   142    1
   102    62   142    1
   103    62    59    1
   104   140   124    2
   105   140   125    2
   106    68    67    1
   107    66    65    1
   108   128   142    2
   109    60    59    1
   110   142   129    2
   111    59   114    1
   112    59    61    1
   113    67    65    2
   114    67    69    1
   115   114    57    1
   116    65   115    1
   117    53    54    1
   118    53    55    1
   119   132   144    2
   120    77    75    1
   121    70    69    1
   122    69    71    1
   123    57    55    2
   124    57    58    1
   125   115    75    1
   126   115    73    1
   127    75    76    1
   128    75    78    1
   129    55    56    1
   130   144    78    1
   131   144   133    2
   132   144    79    1
   133   106    79    1
   134   105    79    1
   135    78   145    1
   136    79   107    1
   137    71    73    2
   138    71    72    1
   139    73    74    1
   140   109    80    1
   141   110    80    1
   142    80   145    1
   143    80   108    1
   144   145   134    2
   145   145   135    2
