@<TRIPOS>MOLECULE
?
 42 45 0 0 0
SMALL
GASTEIGER

@<TRIPOS>ATOM
      1 CL          2.6674    7.6269    8.1129 Cl      1  LIG1       -0.0832
      2 O           2.8206    2.2728   10.0870 O.3     1  LIG1       -0.4391
      3 O           2.4221    3.1536   12.0586 O.2     1  LIG1       -0.2505
      4 O           0.7657    3.9505    8.9574 O.2     1  LIG1       -0.2872
      5 O           3.8508    0.5302    7.9233 O.2     1  LIG1       -0.2872
      6 O           2.7960    4.3672    6.3997 O.2     1  LIG1       -0.1313
      7 O           4.7113    3.4178    6.1478 O.2     1  LIG1       -0.1313
      8 N           3.7866    3.8067    6.8362 N.pl3   1  LIG1        0.0310
      9 C           1.3029    3.0290    8.3885 C.2     1  LIG1        0.2173
     10 C           0.7207    2.0846    7.4252 C.ar    1  LIG1        0.0326
     11 C          -0.5488    2.1145    6.8549 C.ar    1  LIG1       -0.0504
     12 H          -1.1499    2.8289    7.0316 H       1  LIG1        0.0625
     13 C          -0.9063    1.0737    6.0236 C.ar    1  LIG1       -0.0611
     14 H          -1.7686    1.0679    5.6240 H       1  LIG1        0.0618
     15 C          -0.0156    0.0245    5.7602 C.ar    1  LIG1       -0.0611
     16 H          -0.2840   -0.6770    5.1795 H       1  LIG1        0.0618
     17 C           1.2465   -0.0142    6.3261 C.ar    1  LIG1       -0.0504
     18 H           1.8456   -0.7294    6.1470 H       1  LIG1        0.0625
     19 C           1.6033    1.0338    7.1661 C.ar    1  LIG1        0.0326
     20 C           2.8698    1.2264    7.9119 C.2     1  LIG1        0.2173
     21 C           2.7497    2.5630    8.6883 C.3     1  LIG1        0.2635
     22 C           3.8537    3.5538    8.3175 C.3     1  LIG1        0.1718
     23 H           4.7420    3.1535    8.5417 H       1  LIG1        0.0651
     24 C           3.6838    4.8633    9.0912 C.3     1  LIG1        0.0299
     25 H           2.7737    5.2284    8.8947 H       1  LIG1        0.0381
     26 C           3.7542    4.5208   10.5991 C.3     1  LIG1        0.0627
     27 H           4.7043    4.2791   10.7969 H       1  LIG1        0.0417
     28 C           2.9080    3.3211   10.9780 C.2     1  LIG1        0.3120
     29 C           4.7144    5.8989    8.6750 C.ar    1  LIG1       -0.0229
     30 C           6.0811    5.6169    8.7493 C.ar    1  LIG1       -0.0568
     31 H           6.3633    4.7746    9.0864 H       1  LIG1        0.0621
     32 C           7.0339    6.5348    8.3421 C.ar    1  LIG1       -0.0614
     33 H           7.9576    6.3209    8.4000 H       1  LIG1        0.0618
     34 C           6.6350    7.7668    7.8496 C.ar    1  LIG1       -0.0604
     35 H           7.2873    8.3937    7.5611 H       1  LIG1        0.0618
     36 C           5.2895    8.0902    7.7753 C.ar    1  LIG1       -0.0431
     37 H           5.0137    8.9362    7.4413 H       1  LIG1        0.0632
     38 C           4.3504    7.1572    8.1963 C.ar    1  LIG1        0.0445
     39 C           3.4137    5.7163   11.4737 C.3     1  LIG1       -0.0516
     40 H           2.4929    6.0005   11.2959 H       1  LIG1        0.0238
     41 H           4.0283    6.4533   11.2741 H       1  LIG1        0.0238
     42 H           3.5012    5.4655   12.4181 H       1  LIG1        0.0238
@<TRIPOS>BOND
     1    16    15    1
     2    14    13    1
     3    15    13   ar
     4    15    17   ar
     5    13    11   ar
     6    18    17    1
     7     7     8    2
     8    17    19   ar
     9     6     8    2
    10     8    22    1
    11    11    12    1
    12    11    10   ar
    13    19    10   ar
    14    19    20    1
    15    10     9    1
    16    37    36    1
    17    35    34    1
    18    36    34   ar
    19    36    38   ar
    20    34    32   ar
    21    20     5    2
    22    20    21    1
    23     1    38    1
    24    38    29   ar
    25    22    23    1
    26    22    21    1
    27    22    24    1
    28    32    33    1
    29    32    30   ar
    30     9    21    1
    31     9     4    2
    32    29    30   ar
    33    29    24    1
    34    21     2    1
    35    30    31    1
    36    25    24    1
    37    24    26    1
    38     2    28    1
    39    26    27    1
    40    26    28    1
    41    26    39    1
    42    28     3    2
    43    41    39    1
    44    40    39    1
    45    39    42    1
