@<TRIPOS>MOLECULE
?
 36 37 0 0 0
SMALL
GASTEIGER

@<TRIPOS>ATOM
      1 C           2.3730    4.2102    7.5194 C.ar    1  LIG1       -0.0571
      2 H           2.5887    4.9609    7.0132 H       1  LIG1        0.0621
      3 C           1.3666    4.2877    8.4151 C.ar    1  LIG1       -0.0614
      4 H           0.9017    5.0864    8.5208 H       1  LIG1        0.0618
      5 C           1.0168    3.1664    9.1900 C.ar    1  LIG1       -0.0612
      6 H           0.3157    3.2258    9.7984 H       1  LIG1        0.0618
      7 C           1.6908    2.0089    9.0564 C.ar    1  LIG1       -0.0537
      8 H           1.4455    1.2800    9.5799 H       1  LIG1        0.0624
      9 C           2.7684    1.8688    8.1363 C.ar    1  LIG1       -0.0135
     10 C           3.1164    3.0053    7.3279 C.ar    1  LIG1       -0.0274
     11 C           4.1464    2.9077    6.3755 C.3     1  LIG1        0.0430
     12 C           4.5283    4.0816    5.5529 C.2     1  LIG1       -0.0707
     13 H           5.1416    4.6667    5.9354 H       1  LIG1        0.0582
     14 C           4.1153    4.3835    4.3853 C.2     1  LIG1       -0.0575
     15 H           3.4909    3.8005    4.0182 H       1  LIG1        0.0621
     16 C           4.4908    5.5284    3.5371 C.ar    1  LIG1       -0.0218
     17 C           5.5378    6.3844    3.8563 C.ar    1  LIG1       -0.0544
     18 H           6.0451    6.2324    4.6204 H       1  LIG1        0.0623
     19 C           5.8270    7.4592    3.0414 C.ar    1  LIG1       -0.0577
     20 H           6.5232    8.0317    3.2709 H       1  LIG1        0.0619
     21 C           5.1022    7.6999    1.8936 C.ar    1  LIG1       -0.0199
     22 H           5.3015    8.4325    1.3567 H       1  LIG1        0.0654
     23 C           4.0737    6.8378    1.5499 C.ar    1  LIG1        0.1211
     24 C           3.7734    5.7589    2.3658 C.ar    1  LIG1       -0.0128
     25 H           3.0838    5.1810    2.1284 H       1  LIG1        0.0660
     26 C           2.3894    6.2456   -0.0628 C.3     1  LIG1        0.0893
     27 H           1.7141    6.1365    0.6252 H       1  LIG1        0.0696
     28 H           2.7712    5.3757   -0.2587 H       1  LIG1        0.0696
     29 C           1.7752    6.8347   -1.3049 C.3     1  LIG1       -0.0215
     30 H           2.4516    6.9098   -1.9962 H       1  LIG1        0.0295
     31 H           1.4430    7.7250   -1.1109 H       1  LIG1        0.0295
     32 C           0.6302    5.9643   -1.8086 C.3     1  LIG1       -0.0622
     33 H           0.9629    5.0893   -2.0220 H       1  LIG1        0.0231
     34 H           0.2481    6.3619   -2.5940 H       1  LIG1        0.0231
     35 H          -0.0419    5.8930   -1.1267 H       1  LIG1        0.0231
     36 O           3.4111    7.1420    0.3882 O.3     1  LIG1       -0.4920
@<TRIPOS>BOND
     1    34    32    1
     2    33    32    1
     3    30    29    1
     4    32    29    1
     5    32    35    1
     6    29    31    1
     7    29    26    1
     8    28    26    1
     9    26    36    1
    10    26    27    1
    11    36    23    1
    12    22    21    1
    13    23    21   ar
    14    23    24   ar
    15    21    19   ar
    16    25    24    1
    17    24    16   ar
    18    19    20    1
    19    19    17   ar
    20    16    17   ar
    21    16    14    1
    22    17    18    1
    23    15    14    1
    24    14    12    2
    25    12    13    1
    26    12    11    1
    27    11    10    1
    28     2     1    1
    29    10     1   ar
    30    10     9   ar
    31     1     3   ar
    32     9     7   ar
    33     3     4    1
    34     3     5   ar
    35     7     5   ar
    36     7     8    1
    37     5     6    1
