@<TRIPOS>MOLECULE
?
 53 52 0 0 0
SMALL
GASTEIGER

@<TRIPOS>ATOM
      1 S           1.3738    4.5438   -7.5969 S.3     1  LIG1        0.2092
      2 S           2.6763    2.5434   -1.1538 S.3     2  LIG2        0.2092
      3 O           0.0171    4.8704   -7.2740 O.3     1  LIG1       -0.0397
      4 F           3.6225    5.1324   -6.4749 F       1  LIG1       -0.1486
      5 F           1.9908    4.8987   -5.1194 F       1  LIG1       -0.1486
      6 O           1.6939    3.1963   -7.4941 O.2     1  LIG1       -0.1362
      7 O           1.8449    5.1472   -8.7879 O.2     1  LIG1       -0.1362
      8 F           2.1793    6.6194   -6.2787 F       1  LIG1       -0.1486
      9 F           2.2727    4.6366    0.1949 F       2  LIG2       -0.1486
     10 F           2.0110    4.8857   -1.8910 F       2  LIG2       -0.1486
     11 F           3.9212    4.7126   -1.0640 F       2  LIG2       -0.1486
     12 C           6.6964   -2.3111    4.0919 C.3     3  LIG3        0.0742
     13 H           6.7303   -2.1394    5.0353 H       3  LIG3        0.0693
     14 H           7.4872   -2.7854    3.8241 H       3  LIG3        0.0693
     15 H           5.9218   -2.8417    3.8914 H       3  LIG3        0.0693
     16 C           4.1531   -1.0977    5.4152 C.3     3  LIG3        0.0714
     17 H           3.3504   -0.7845    5.8385 H       3  LIG3        0.0689
     18 H           4.8403   -1.2133    6.0754 H       3  LIG3        0.0689
     19 H           3.9803   -1.9384    4.9834 H       3  LIG3        0.0689
     20 O           2.9907    2.2836   -2.4952 O.2     2  LIG2       -0.1362
     21 O           1.2975    2.2623   -0.8887 O.2     2  LIG2       -0.1362
     22 O           3.5958    2.0696   -0.1920 O.3     2  LIG2       -0.0397
     23 N           6.6192   -1.0323    3.3615 N.pl3   3  LIG3       -0.1999
     24 C           7.5443   -0.7697    2.4181 C.2     3  LIG3        0.0807
     25 H           8.2254   -1.3858    2.2779 H       3  LIG3        0.1057
     26 C           2.3107    5.3354   -6.2857 C.3     1  LIG1        0.5487
     27 C           3.9465    5.5077    3.0517 C.3     3  LIG3       -0.0586
     28 H           2.9970    5.4302    3.1695 H       3  LIG3        0.0235
     29 H           4.1476    5.5876    2.1167 H       3  LIG3        0.0235
     30 H           4.2637    6.2876    3.5143 H       3  LIG3        0.0235
     31 C           4.6330    4.2634    3.6181 C.3     3  LIG3       -0.0219
     32 C           4.0554    3.0910    2.8274 C.3     3  LIG3        0.0208
     33 H           3.0884    3.1169    2.8975 H       3  LIG3        0.0470
     34 H           4.2841    3.2055    1.8924 H       3  LIG3        0.0470
     35 N           4.5272    1.7597    3.2704 N.pl3   3  LIG3       -0.2848
     36 C           5.6237    1.0504    2.8078 C.2     3  LIG3        0.1034
     37 C           5.6586   -0.1113    3.5396 C.2     3  LIG3        0.2831
     38 C           7.5240    0.3643    1.6583 C.2     3  LIG3       -0.0370
     39 H           8.1820    0.4943    1.0149 H       3  LIG3        0.0613
     40 C           6.5476    1.3152    1.8308 C.3     3  LIG3        0.0380
     41 H           6.5153    2.0891    1.3149 H       3  LIG3        0.0417
     42 C           4.3257    4.1396    5.0942 C.3     3  LIG3       -0.0586
     43 H           4.6567    4.9136    5.5554 H       3  LIG3        0.0235
     44 H           4.7496    3.3534    5.4446 H       3  LIG3        0.0235
     45 H           3.3763    4.0740    5.2189 H       3  LIG3        0.0235
     46 C           6.1497    4.3638    3.4078 C.3     3  LIG3       -0.0586
     47 H           6.4719    5.1833    3.7905 H       3  LIG3        0.0235
     48 H           6.3432    4.3535    2.4672 H       3  LIG3        0.0235
     49 H           6.5818    3.6202    3.8311 H       3  LIG3        0.0235
     50 C           3.9627    1.0345    4.2082 C.3     3  LIG3        0.2161
     51 H           3.2032    1.2937    4.6792 H       3  LIG3        0.1047
     52 N           4.5989   -0.1072    4.4059 N.pl3   3  LIG3       -0.2022
     53 C           2.7211    4.3082   -1.0149 C.3     2  LIG2        0.5487
@<TRIPOS>BOND
     1     7     1    2
     2     1     6    2
     3     1     3    1
     4     1    26    1
     5     4    26    1
     6    26     8    1
     7    26     5    1
     8    20     2    2
     9    10    53    1
    10     2    53    1
    11     2    21    2
    12     2    22    1
    13    11    53    1
    14    53     9    1
    15    39    38    1
    16    41    40    1
    17    38    40    1
    18    38    24    2
    19    40    36    1
    20    34    32    1
    21    29    27    1
    22    25    24    1
    23    24    23    1
    24    48    46    1
    25    36    35    1
    26    36    37    2
    27    32    33    1
    28    32    35    1
    29    32    31    1
    30    27    28    1
    31    27    30    1
    32    27    31    1
    33    35    50    1
    34    23    37    1
    35    23    12    1
    36    46    31    1
    37    46    47    1
    38    46    49    1
    39    37    52    1
    40    31    42    1
    41    14    12    1
    42    15    12    1
    43    12    13    1
    44    50    52    1
    45    50    51    1
    46    52    16    1
    47    19    16    1
    48    42    45    1
    49    42    44    1
    50    42    43    1
    51    16    17    1
    52    16    18    1
