@<TRIPOS>MOLECULE
2-(9,10-Anthraquinon-2-yl)-4,4,5,5-tetramethyl-4,5-dihydro-1H-imidazole-3-oxide-1-oxyl
 46 49 0 0 0
SMALL
GASTEIGER

@<TRIPOS>ATOM
      1 C           2.5503    2.8901    5.1283 C.ar    1  LIG1       -0.0042
      2 O           1.6752    5.6506    5.6231 O.3     1  LIG1       -0.1164
      3 N           2.2323    5.2888    4.5300 N.4     1  LIG1       -0.1161
      4 O           3.6271    2.9938    2.3772 O.3     1  LIG1       -0.1164
      5 N           3.1403    4.0181    2.9794 N.4     1  LIG1       -0.1161
      6 C           2.7111    3.0570    6.5085 C.ar    1  LIG1       -0.0438
      7 H           2.9774    3.8978    6.8599 H       1  LIG1        0.0629
      8 C           2.4785    1.9807    7.3629 C.ar    1  LIG1        0.0334
      9 O           3.2732    3.1567    9.2685 O.2     1  LIG1       -0.2866
     10 C           2.6924    2.1714    8.8347 C.2     1  LIG1        0.1945
     11 C           2.2287    1.0773    9.7359 C.ar    1  LIG1        0.0331
     12 C           2.2983    1.2616   11.1226 C.ar    1  LIG1       -0.0502
     13 H           2.6228    2.0825   11.4769 H       1  LIG1        0.0625
     14 C           1.8942    0.2502   11.9812 C.ar    1  LIG1       -0.0610
     15 H           1.9308    0.3860   12.9212 H       1  LIG1        0.0618
     16 C           1.4348   -0.9647   11.4738 C.ar    1  LIG1       -0.0610
     17 H           1.1714   -1.6605   12.0648 H       1  LIG1        0.0618
     18 C           1.3638   -1.1524   10.0982 C.ar    1  LIG1       -0.0502
     19 H           1.0480   -1.9786    9.7508 H       1  LIG1        0.0625
     20 C           1.7521   -0.1345    9.2236 C.ar    1  LIG1        0.0331
     21 O           1.2233   -1.4183    7.3012 O.2     1  LIG1       -0.2866
     22 C           1.6487   -0.3641    7.7540 C.2     1  LIG1        0.1945
     23 C           2.0521    0.7492    6.8524 C.ar    1  LIG1        0.0331
     24 C           1.9495    0.5779    5.4675 C.ar    1  LIG1       -0.0499
     25 H           1.6975   -0.2672    5.1139 H       1  LIG1        0.0625
     26 C           2.2144    1.6310    4.6112 C.ar    1  LIG1       -0.0546
     27 H           2.1677    1.5015    3.6718 H       1  LIG1        0.0622
     28 C           2.6687    4.0444    4.2413 C.3     1  LIG1        0.1935
     29 C           2.2912    6.2151    3.3428 C.3     1  LIG1        0.0671
     30 C           3.1561    5.3770    2.3366 C.3     1  LIG1        0.0671
     31 C           2.9020    7.5389    3.7998 C.3     1  LIG1       -0.0427
     32 H           2.2919    7.9802    4.4261 H       1  LIG1        0.0249
     33 H           3.0470    8.1180    3.0217 H       1  LIG1        0.0249
     34 H           3.7583    7.3673    4.2442 H       1  LIG1        0.0249
     35 C           0.8405    6.4293    2.8964 C.3     1  LIG1       -0.0427
     36 H           0.3639    6.9495    3.5764 H       1  LIG1        0.0249
     37 H           0.4020    5.5605    2.7844 H       1  LIG1        0.0249
     38 H           0.8290    6.9135    2.0456 H       1  LIG1        0.0249
     39 C           4.6182    5.8065    2.2588 C.3     1  LIG1       -0.0427
     40 H           5.0898    5.2466    1.6085 H       1  LIG1        0.0249
     41 H           5.0359    5.7047    3.1393 H       1  LIG1        0.0249
     42 H           4.6692    6.7438    1.9790 H       1  LIG1        0.0249
     43 C           2.5732    5.2294    0.9343 C.3     1  LIG1       -0.0427
     44 H           3.1841    4.6995    0.3794 H       1  LIG1        0.0249
     45 H           2.4555    6.1161    0.5347 H       1  LIG1        0.0249
     46 H           1.7054    4.7779    0.9873 H       1  LIG1        0.0249
@<TRIPOS>BOND
     1    44    43    1
     2    45    43    1
     3    43    46    1
     4    43    30    1
     5    40    39    1
     6    42    39    1
     7    38    35    1
     8    39    30    1
     9    39    41    1
    10    30     5    1
    11    30    29    1
    12     4     5    1
    13    37    35    1
    14    35    29    1
    15    35    36    1
    16     5    28    1
    17    33    31    1
    18    29    31    1
    19    29     3    1
    20    27    26    1
    21    31    34    1
    22    31    32    1
    23    28     3    1
    24    28     1    1
    25     3     2    1
    26    26     1   ar
    27    26    24   ar
    28    25    24    1
    29     1     6   ar
    30    24    23   ar
    31     6     7    1
    32     6     8   ar
    33    23     8   ar
    34    23    22    1
    35    21    22    2
    36     8    10    1
    37    22    20    1
    38    10     9    2
    39    10    11    1
    40    20    11   ar
    41    20    18   ar
    42    11    12   ar
    43    19    18    1
    44    18    16   ar
    45    12    13    1
    46    12    14   ar
    47    16    14   ar
    48    16    17    1
    49    14    15    1
