@<TRIPOS>MOLECULE
?
 49 52 0 0 0
SMALL
GASTEIGER

@<TRIPOS>ATOM
      1 BR          6.0210    8.2752    3.5569 Br      1  LIG1       -0.0484
      2 F           7.8802    0.7660    6.0165 F       1  LIG1       -0.1660
      3 F           9.5575    1.4658    4.8535 F       1  LIG1       -0.1660
      4 F           8.4531    2.8422    6.1014 F       1  LIG1       -0.1660
      5 O           7.5005    0.8914    3.2955 O.2     1  LIG1       -0.4711
      6 O           9.8827    4.1240    4.0050 O.2     1  LIG1       -0.2737
      7 O           5.0990    1.2840    4.2917 O.2     1  LIG1       -0.2459
      8 O           5.7614    3.0775    5.4921 O.3     1  LIG1       -0.4619
      9 N           9.2813    3.8406    0.0122 N.1     1  LIG1       -0.1911
     10 N           8.0914    5.5484    3.8082 N.am    1  LIG1       -0.2646
     11 C           8.3397    1.7991    5.2826 C.3     1  LIG1        0.4419
     12 C           7.3739    2.0578    4.1194 C.3     1  LIG1        0.3215
     13 C           8.0535    1.2521    2.1140 C.2     1  LIG1        0.1014
     14 H           8.2793    0.6261    1.4364 H       1  LIG1        0.1034
     15 C           8.2527    2.5560    1.9831 C.2     1  LIG1        0.0876
     16 C           7.7069    3.2978    3.1978 C.3     1  LIG1        0.1700
     17 C           8.8218    3.2338    0.8701 C.1     1  LIG1        0.0994
     18 C           8.7122    4.3267    3.7527 C.2     1  LIG1        0.2407
     19 C           6.7903    5.4926    3.2554 C.ar    1  LIG1        0.0552
     20 C           5.8245    6.4576    3.0550 C.ar    1  LIG1        0.0396
     21 C           4.6266    6.1075    2.4310 C.ar    1  LIG1       -0.0459
     22 H           3.9655    6.7741    2.2834 H       1  LIG1        0.0629
     23 C           4.3839    4.8107    2.0237 C.ar    1  LIG1       -0.0603
     24 H           3.5616    4.5905    1.6010 H       1  LIG1        0.0618
     25 C           5.3456    3.8244    2.2329 C.ar    1  LIG1       -0.0552
     26 H           5.1909    2.9294    1.9515 H       1  LIG1        0.0621
     27 C           6.5251    4.1714    2.8545 C.ar    1  LIG1       -0.0001
     28 C           8.8637    6.7356    4.1789 C.3     1  LIG1        0.0449
     29 H           9.6127    6.4555    4.7632 H       1  LIG1        0.0518
     30 H           8.2833    7.3393    4.7075 H       1  LIG1        0.0518
     31 C           9.4280    7.5088    3.0061 C.ar    1  LIG1       -0.0297
     32 C           9.2982    7.0907    1.6926 C.ar    1  LIG1       -0.0571
     33 H           8.8113    6.2993    1.4948 H       1  LIG1        0.0621
     34 C           9.8755    7.8233    0.6640 C.ar    1  LIG1       -0.0615
     35 H           9.7811    7.5311   -0.2363 H       1  LIG1        0.0618
     36 C          10.5857    8.9710    0.9423 C.ar    1  LIG1       -0.0617
     37 H          10.9791    9.4682    0.2363 H       1  LIG1        0.0618
     38 C          10.7243    9.3971    2.2388 C.ar    1  LIG1       -0.0615
     39 H          11.2209   10.1845    2.4268 H       1  LIG1        0.0618
     40 C          10.1383    8.6777    3.2838 C.ar    1  LIG1       -0.0571
     41 H          10.2237    8.9821    4.1791 H       1  LIG1        0.0621
     42 C           5.9196    2.0761    4.6435 C.2     1  LIG1        0.3624
     43 C           4.3839    3.2978    5.9676 C.3     1  LIG1        0.0898
     44 H           4.2170    2.7691    6.7891 H       1  LIG1        0.0694
     45 H           3.7341    3.0167    5.2757 H       1  LIG1        0.0694
     46 C           4.2356    4.7518    6.2533 C.3     1  LIG1       -0.0306
     47 H           4.3242    5.2592    5.4191 H       1  LIG1        0.0262
     48 H           4.9313    5.0339    6.8820 H       1  LIG1        0.0262
     49 H           3.3528    4.9193    6.6457 H       1  LIG1        0.0262
@<TRIPOS>BOND
     1    35    34    1
     2     9    17    3
     3    37    36    1
     4    34    36   ar
     5    34    32   ar
     6    17    15    1
     7    36    38   ar
     8    14    13    1
     9    33    32    1
    10    24    23    1
    11    32    31   ar
    12    26    25    1
    13    15    13    2
    14    15    16    1
    15    23    25   ar
    16    23    21   ar
    17    13     5    1
    18    25    27   ar
    19    38    39    1
    20    38    40   ar
    21    22    21    1
    22    21    20   ar
    23    27    16    1
    24    27    19   ar
    25    31    40   ar
    26    31    28    1
    27    20    19   ar
    28    20     1    1
    29    16    18    1
    30    16    12    1
    31    19    10    1
    32    40    41    1
    33     5    12    1
    34    18    10   am
    35    18     6    2
    36    10    28    1
    37    12    42    1
    38    12    11    1
    39    28    30    1
    40    28    29    1
    41     7    42    2
    42    42     8    1
    43     3    11    1
    44    45    43    1
    45    11     2    1
    46    11     4    1
    47    47    46    1
    48     8    43    1
    49    43    46    1
    50    43    44    1
    51    46    49    1
    52    46    48    1
