@<TRIPOS>MOLECULE
?
 76 78 0 0 0
SMALL
GASTEIGER

@<TRIPOS>ATOM
      1 S           5.1526   -0.0145   10.2911 S.O2    1  LIG1        0.1788
      2 S           0.3316    6.3197    7.8357 S.O2    2  LIG2        0.1788
      3 O           5.0135   -0.4972   11.6434 O.2     1  LIG1       -0.1251
      4 O           6.4505   -0.1441    9.6761 O.2     1  LIG1       -0.1251
      5 O          -0.8649    5.9982    7.0947 O.2     2  LIG2       -0.1251
      6 O           1.5868    5.9825    7.2095 O.2     2  LIG2       -0.1251
      7 N           3.9742   -0.5747    9.3370 N.2     1  LIG1        0.0950
      8 O           0.3013   -2.9106    7.3122 O.3     1  LIG1       -0.3724
      9 N           0.2447    5.7815    9.3538 N.2     2  LIG2        0.0950
     10 C           4.0019    5.9455   10.3757 C.3     1  LIG1       -0.0397
     11 H           4.7365    6.4087    9.9665 H       1  LIG1        0.0278
     12 H           3.9101    6.2330   11.2876 H       1  LIG1        0.0278
     13 H           3.1939    6.1400    9.8967 H       1  LIG1        0.0278
     14 C           4.2615    4.4566   10.3400 C.ar    1  LIG1       -0.0503
     15 C           3.7467    3.6212   11.3287 C.ar    1  LIG1       -0.0569
     16 H           3.2349    3.9883   12.0140 H       1  LIG1        0.0621
     17 C           3.9818    2.2532   11.3137 C.ar    1  LIG1       -0.0326
     18 H           3.6276    1.7074   11.9778 H       1  LIG1        0.0638
     19 C           4.7529    1.7095   10.2931 C.ar    1  LIG1        0.1347
     20 C           3.8957   -1.8585    9.0258 C.2     1  LIG1        0.3389
     21 N           2.9057   -2.2339    8.2010 N.pl3   1  LIG1       -0.2146
     22 C           2.0314   -1.2386    7.5690 C.3     1  LIG1        0.1040
     23 H           2.2123   -1.2037    6.6166 H       1  LIG1        0.0749
     24 H           2.2128   -0.3616    7.9418 H       1  LIG1        0.0749
     25 C           0.5813   -1.5964    7.7973 C.3     1  LIG1        0.0837
     26 H           0.3827   -1.5524    8.7460 H       1  LIG1        0.0597
     27 H           0.0138   -0.9557    7.3416 H       1  LIG1        0.0597
     28 C           2.5767   -3.6187    7.8271 C.3     1  LIG1        0.1040
     29 H           3.0822   -4.2363    8.3781 H       1  LIG1        0.0749
     30 H           2.8169   -3.7739    6.8999 H       1  LIG1        0.0749
     31 C           1.0918   -3.8568    8.0198 C.3     1  LIG1        0.0837
     32 H           0.8698   -4.7503    7.7135 H       1  LIG1        0.0597
     33 H           0.8814   -3.8049    8.9649 H       1  LIG1        0.0597
     34 C           4.8648   -2.8714    9.5308 C.2     1  LIG1        0.0241
     35 H           4.9307   -2.9938   10.4498 H       1  LIG1        0.0693
     36 C           5.6294   -3.5998    8.7564 C.2     1  LIG1       -0.0910
     37 H           5.5855   -3.5001    7.8330 H       1  LIG1        0.0537
     38 H           6.2157   -4.2182    9.1300 H       1  LIG1        0.0537
     39 C           5.2827    2.5229    9.2988 C.ar    1  LIG1       -0.0326
     40 H           5.8019    2.1543    8.6211 H       1  LIG1        0.0638
     41 C           5.0325    3.8878    9.3231 C.ar    1  LIG1       -0.0569
     42 H           5.3823    4.4300    8.6547 H       1  LIG1        0.0621
     43 C           0.3276   12.3643    8.3984 C.3     2  LIG2       -0.0397
     44 H           1.1095   12.6624    8.8695 H       2  LIG2        0.0278
     45 H          -0.4581   12.6649    8.8601 H       2  LIG2        0.0278
     46 H           0.3354   12.7243    7.5081 H       2  LIG2        0.0278
     47 C           0.3246   10.8557    8.3303 C.ar    2  LIG2       -0.0503
     48 C           1.5155   10.1392    8.3561 C.ar    2  LIG2       -0.0569
     49 H           2.3213   10.5959    8.4466 H       2  LIG2        0.0621
     50 C           1.5228    8.7536    8.2484 C.ar    2  LIG2       -0.0326
     51 H           2.3282    8.2892    8.2600 H       2  LIG2        0.0638
     52 C           0.3225    8.0668    8.1238 C.ar    2  LIG2        0.1347
     53 C           0.2354    4.4949    9.6426 C.2     2  LIG2        0.3389
     54 N           0.1780    4.1709   10.9420 N.pl3   2  LIG2       -0.2146
     55 C           0.2729    5.2256   11.9625 C.3     2  LIG2        0.1040
     56 H           0.1423    6.0909   11.5454 H       2  LIG2        0.0749
     57 H           1.1577    5.2127   12.3591 H       2  LIG2        0.0749
     58 C          -0.7617    5.0270   13.0385 C.3     2  LIG2        0.0837
     59 H          -0.6432    5.6983   13.7272 H       2  LIG2        0.0597
     60 H          -1.6472    5.1378   12.6585 H       2  LIG2        0.0597
     61 O          -0.6558    3.7295   13.6201 O.3     2  LIG2       -0.3724
     62 C          -0.8756   10.1508    8.2265 C.ar    2  LIG2       -0.0569
     63 H          -1.6819   10.6140    8.2197 H       2  LIG2        0.0621
     64 C          -0.8819    8.7603    8.1330 C.ar    2  LIG2       -0.0326
     65 H          -1.6877    8.2995    8.0774 H       2  LIG2        0.0638
     66 C           0.2903    3.4342    8.5967 C.2     2  LIG2        0.0241
     67 H          -0.3898    3.4123    7.9632 H       2  LIG2        0.0693
     68 C           1.2416    2.5245    8.5129 C.2     2  LIG2       -0.0910
     69 H           1.9353    2.5185    9.1314 H       2  LIG2        0.0537
     70 H           1.2182    1.8882    7.8357 H       2  LIG2        0.0537
     71 C           0.1040    2.8060   11.4878 C.3     2  LIG2        0.1040
     72 H           0.9751    2.5418   11.8220 H       2  LIG2        0.0749
     73 H          -0.1507    2.1879   10.7855 H       2  LIG2        0.0749
     74 C          -0.9146    2.7443   12.6138 C.3     2  LIG2        0.0837
     75 H          -1.8030    2.8853   12.2503 H       2  LIG2        0.0597
     76 H          -0.8935    1.8624   13.0170 H       2  LIG2        0.0597
@<TRIPOS>BOND
     1    23    22    1
     2    30    28    1
     3     5     2    2
     4     6     2    2
     5     8    25    1
     6     8    31    1
     7    27    25    1
     8    46    43    1
     9    22    25    1
    10    22    24    1
    11    22    21    1
    12    32    31    1
    13    25    26    1
    14    28    31    1
    15    28    21    1
    16    28    29    1
    17    37    36    1
    18     2    52    1
    19     2     9    1
    20    70    68    1
    21    67    66    1
    22    31    33    1
    23    65    64    1
    24    52    64   ar
    25    52    50   ar
    26    64    62   ar
    27    21    20    1
    28    63    62    1
    29    62    47   ar
    30    50    51    1
    31    50    48   ar
    32    47    48   ar
    33    47    43    1
    34    48    49    1
    35    43    45    1
    36    43    44    1
    37    68    66    2
    38    68    69    1
    39    66    53    1
    40    40    39    1
    41    42    41    1
    42    36    38    1
    43    36    34    2
    44    20     7    2
    45    20    34    1
    46    39    41   ar
    47    39    19   ar
    48    41    14   ar
    49     7     1    1
    50     9    53    2
    51    34    35    1
    52    53    54    1
    53     4     1    2
    54    13    10    1
    55    11    10    1
    56     1    19    1
    57     1     3    2
    58    19    17   ar
    59    14    10    1
    60    14    15   ar
    61    10    12    1
    62    73    71    1
    63    54    71    1
    64    54    55    1
    65    17    15   ar
    66    17    18    1
    67    15    16    1
    68    71    72    1
    69    71    74    1
    70    56    55    1
    71    55    57    1
    72    55    58    1
    73    75    74    1
    74    74    76    1
    75    74    61    1
    76    60    58    1
    77    58    61    1
    78    58    59    1
