@<TRIPOS>MOLECULE
?
 46 51 0 0 0
SMALL
GASTEIGER

@<TRIPOS>ATOM
      1 S           3.9263    3.4794   13.7562 S.3     1  LIG1       -0.0758
      2 S           2.5482    1.5373   15.6431 S.3     1  LIG1       -0.1200
      3 S           0.1608    1.3697   13.4332 S.3     1  LIG1       -0.1200
      4 S           1.7030    3.3692   11.8066 S.3     1  LIG1       -0.0758
      5 S           3.4545    5.3045    9.7990 S.3     1  LIG1       -0.0904
      6 S           5.6059    5.3748   11.8211 S.3     1  LIG1       -0.0904
      7 S           5.1883    6.7131    7.7479 S.3     1  LIG1       -0.1117
      8 S           7.4958    6.7898    9.9431 S.3     1  LIG1       -0.1117
      9 C           3.3066    3.9607   12.1747 C.2     1  LIG1        0.0580
     10 C           2.5757    2.4311   14.1528 C.2     1  LIG1        0.0656
     11 C           4.1222    1.8725   16.3809 C.3     1  LIG1       -0.0129
     12 H           4.8145    1.4638   15.8578 H       1  LIG1        0.0344
     13 H           4.1397    1.5146   17.2716 H       1  LIG1        0.0344
     14 H           4.2638    2.8214   16.4145 H       1  LIG1        0.0344
     15 C           1.5732    2.3838   13.2713 C.2     1  LIG1        0.0656
     16 C          -0.9625    2.4013   14.3038 C.3     1  LIG1       -0.0129
     17 H          -0.5594    2.6907   15.1258 H       1  LIG1        0.0344
     18 H          -1.7643    1.9102   14.4959 H       1  LIG1        0.0344
     19 H          -1.1768    3.1670   13.7654 H       1  LIG1        0.0344
     20 C           4.0254    4.7333   11.3634 C.3     1  LIG1        0.1382
     21 C           5.9898    5.9735   10.2165 C.2     1  LIG1        0.0627
     22 C           6.8881    8.4142    9.3579 C.3     1  LIG1        0.0300
     23 H           7.6636    8.8641    8.9614 H       1  LIG1        0.0433
     24 C           6.3956    9.3395   10.4971 C.3     1  LIG1        0.0014
     25 H           7.0195    9.3281   11.2521 H       1  LIG1        0.0361
     26 C           6.2596   10.7524    9.9191 C.3     1  LIG1       -0.0444
     27 H           7.1196   11.0576    9.5912 H       1  LIG1        0.0272
     28 H           5.9639   11.3637   10.6115 H       1  LIG1        0.0272
     29 C           5.2325   10.7366    8.7616 C.3     1  LIG1       -0.0444
     30 H           4.5203   11.3689    8.9446 H       1  LIG1        0.0272
     31 H           5.6661   10.9980    7.9335 H       1  LIG1        0.0272
     32 C           5.0119    8.9150   10.9303 C.2     1  LIG1        0.0105
     33 C           4.6662    8.6247   12.3455 C.2     1  LIG1        0.1829
     34 C           3.2762    8.2029   12.5606 C.2     1  LIG1       -0.0110
     35 H           3.0154    7.9538   13.4177 H       1  LIG1        0.0657
     36 C           2.3739    8.1590   11.5845 C.2     1  LIG1       -0.0110
     37 H           1.5142    7.8617   11.7782 H       1  LIG1        0.0657
     38 C           2.6923    8.5651   10.2150 C.2     1  LIG1        0.1829
     39 C           4.1109    8.9124    9.9573 C.2     1  LIG1        0.0105
     40 C           4.6523    9.3316    8.6213 C.3     1  LIG1        0.0014
     41 H           3.9465    9.3149    7.9411 H       1  LIG1        0.0361
     42 C           5.7932    8.3800    8.2385 C.3     1  LIG1        0.0300
     43 H           6.2097    8.7642    7.4394 H       1  LIG1        0.0433
     44 C           5.0077    5.9392    9.2908 C.2     1  LIG1        0.0627
     45 O           5.4449    8.7256   13.2530 O.2     1  LIG1       -0.2876
     46 O           1.8651    8.5738    9.3244 O.2     1  LIG1       -0.2876
@<TRIPOS>BOND
     1    43    42    1
     2     7    42    1
     3     7    44    1
     4    31    29    1
     5    41    40    1
     6    42    40    1
     7    42    22    1
     8    40    29    1
     9    40    39    1
    10    29    30    1
    11    29    26    1
    12    23    22    1
    13    44     5    1
    14    44    21    2
    15    46    38    2
    16    22     8    1
    17    22    24    1
    18    27    26    1
    19     5    20    1
    20    26    24    1
    21    26    28    1
    22     8    21    1
    23    39    38    1
    24    39    32    2
    25    38    36    1
    26    21     6    1
    27    24    32    1
    28    24    25    1
    29    32    33    1
    30    20     6    1
    31    20     9    1
    32    36    37    1
    33    36    34    2
    34     4     9    2
    35     4    15    1
    36     9     1    1
    37    33    34    1
    38    33    45    2
    39    34    35    1
    40    15     3    1
    41    15    10    2
    42     3    16    1
    43     1    10    1
    44    19    16    1
    45    10     2    1
    46    16    18    1
    47    16    17    1
    48     2    11    1
    49    12    11    1
    50    11    14    1
    51    11    13    1
