@<TRIPOS>MOLECULE
?
 54 57 0 0 0
SMALL
GASTEIGER

@<TRIPOS>ATOM
      1 O          -0.3865   10.7038    9.0595 O.3     1  LIG1       -0.3811
      2 H           0.0948   10.3955    9.6468 H       1  LIG1        0.2107
      3 O           1.7879   11.2812    6.5308 O.2     1  LIG1       -0.2479
      4 O           2.3513   11.3819    8.6653 O.3     1  LIG1       -0.4661
      5 N          -0.4509   12.7895    6.8640 N.pl3   1  LIG1       -0.3037
      6 C          -1.7766   12.5866    8.7182 C.ar    1  LIG1        0.0076
      7 C          -2.9604   12.6290    9.4141 C.ar    1  LIG1       -0.0540
      8 H          -2.9861   12.4203   10.3204 H       1  LIG1        0.0622
      9 C          -4.1194   12.9913    8.7354 C.ar    1  LIG1       -0.0613
     10 H          -4.9302   13.0219    9.1896 H       1  LIG1        0.0618
     11 C          -4.0754   13.3011    7.4055 C.ar    1  LIG1       -0.0600
     12 H          -4.8616   13.5316    6.9666 H       1  LIG1        0.0618
     13 C          -2.8884   13.2786    6.7004 C.ar    1  LIG1       -0.0403
     14 H          -2.8630   13.5096    5.7992 H       1  LIG1        0.0636
     15 C          -1.7403   12.9052    7.3679 C.ar    1  LIG1        0.0372
     16 C          -0.6094   12.6286    4.4002 C.ar    1  LIG1       -0.0301
     17 C          -0.8282   11.2780    4.4277 C.ar    1  LIG1       -0.0571
     18 H          -0.6731   10.8013    5.2110 H       1  LIG1        0.0621
     19 C          -1.2826   10.6084    3.2908 C.ar    1  LIG1       -0.0615
     20 H          -1.4321    9.6920    3.3233 H       1  LIG1        0.0618
     21 C          -1.5052   11.2830    2.1417 C.ar    1  LIG1       -0.0617
     22 H          -1.7959   10.8353    1.3807 H       1  LIG1        0.0618
     23 C          -1.2975   12.6482    2.1122 C.ar    1  LIG1       -0.0615
     24 H          -1.4637   13.1199    1.3289 H       1  LIG1        0.0618
     25 C          -0.8527   13.3121    3.2136 C.ar    1  LIG1       -0.0571
     26 H          -0.7104   14.2312    3.1729 H       1  LIG1        0.0621
     27 C           1.0991   14.1078    8.2752 C.ar    1  LIG1       -0.0101
     28 C           0.2689   15.1878    8.4804 C.ar    1  LIG1       -0.0556
     29 H          -0.6528   15.0707    8.4378 H       1  LIG1        0.0621
     30 C           0.7835   16.4496    8.7497 C.ar    1  LIG1       -0.0585
     31 H           0.1970   17.1554    8.8960 H       1  LIG1        0.0620
     32 C           2.1386   16.6807    8.8045 C.ar    1  LIG1       -0.0504
     33 C           2.9576   15.6055    8.5607 C.ar    1  LIG1       -0.0585
     34 H           3.8793   15.7302    8.5668 H       1  LIG1        0.0620
     35 C           2.4545   14.3517    8.3057 C.ar    1  LIG1       -0.0556
     36 H           3.0449   13.6495    8.1513 H       1  LIG1        0.0621
     37 C           0.5016   12.7185    7.9806 C.3     1  LIG1        0.1907
     38 C          -0.4040   12.1443    9.1571 C.3     1  LIG1        0.1256
     39 C          -0.1028   13.4039    5.5981 C.3     1  LIG1        0.0387
     40 H           0.8626   13.4796    5.5392 H       1  LIG1        0.0513
     41 H          -0.4710   14.3011    5.5717 H       1  LIG1        0.0513
     42 C           0.0116   12.5592   10.5378 C.3     1  LIG1       -0.0289
     43 H          -0.5815   12.1665   11.1819 H       1  LIG1        0.0262
     44 H          -0.0248   13.5156   10.6089 H       1  LIG1        0.0262
     45 H           0.9090   12.2604   10.7054 H       1  LIG1        0.0262
     46 C           2.6960   18.0512    9.0728 C.3     1  LIG1       -0.0397
     47 H           3.6559   18.0108    9.0728 H       1  LIG1        0.0278
     48 H           2.3882   18.3606    9.9282 H       1  LIG1        0.0278
     49 H           2.4013   18.6564    8.3890 H       1  LIG1        0.0278
     50 C           1.6041   11.7125    7.6361 C.2     1  LIG1        0.3386
     51 C           3.4060   10.4095    8.2722 C.3     1  LIG1        0.0817
     52 H           3.9327   10.1817    9.0423 H       1  LIG1        0.0661
     53 H           3.9712   10.8033    7.6036 H       1  LIG1        0.0661
     54 H           2.9956    9.6180    7.9186 H       1  LIG1        0.0661
@<TRIPOS>BOND
     1    24    23    1
     2    22    21    1
     3    23    21   ar
     4    23    25   ar
     5    21    19   ar
     6    26    25    1
     7    25    16   ar
     8    19    20    1
     9    19    17   ar
    10    16    17   ar
    11    16    39    1
    12    17    18    1
    13    40    39    1
    14    41    39    1
    15    39     5    1
    16    14    13    1
    17     3    50    2
    18    13    15   ar
    19    13    11   ar
    20     5    15    1
    21     5    37    1
    22    12    11    1
    23    15     6   ar
    24    11     9   ar
    25    53    51    1
    26    50    37    1
    27    50     4    1
    28    54    51    1
    29    37    27    1
    30    37    38    1
    31    36    35    1
    32    51     4    1
    33    51    52    1
    34    27    35   ar
    35    27    28   ar
    36    35    33   ar
    37    49    46    1
    38    29    28    1
    39    28    30   ar
    40    33    34    1
    41    33    32   ar
    42     6    38    1
    43     6     7   ar
    44     9    10    1
    45     9     7   ar
    46    30    32   ar
    47    30    31    1
    48    32    46    1
    49     1    38    1
    50     1     2    1
    51    46    47    1
    52    46    48    1
    53    38    42    1
    54     7     8    1
    55    42    44    1
    56    42    45    1
    57    42    43    1
