@<TRIPOS>MOLECULE
rac-(7aS,12R)-12-Phenyl-7a,8,10,11-tetrahydro-12H-7,9-dioxa-11a-aza-benzo[a]anthracene
 43 47 0 0 0
SMALL
GASTEIGER

@<TRIPOS>ATOM
      1 O          -5.4241    2.0037    5.3150 O.3     1  LIG1       -0.3735
      2 O          -3.0005    0.7327    6.2753 O.3     1  LIG1       -0.4709
      3 N          -2.7188    2.8596    5.1994 N.3     1  LIG1       -0.2526
      4 C          -1.0056    1.9927    6.7772 C.ar    1  LIG1        0.0236
      5 C          -0.3815    2.9590    4.4840 C.ar    1  LIG1       -0.0256
      6 C           0.1773    2.0957    7.5863 C.ar    1  LIG1       -0.0094
      7 C          -3.0657    1.4844    5.0312 C.3     1  LIG1        0.1783
      8 H          -2.4483    1.0803    4.3871 H       1  LIG1        0.0935
      9 C          -1.3268    2.9964    5.6871 C.3     1  LIG1        0.0682
     10 H          -1.2495    3.8879    6.0864 H       1  LIG1        0.0565
     11 C          -1.8573    0.9412    7.0085 C.ar    1  LIG1        0.1285
     12 C           0.4538    1.0908    8.5575 C.ar    1  LIG1       -0.0173
     13 C           1.1006    3.1533    7.4472 C.ar    1  LIG1       -0.0536
     14 H           0.9308    3.8308    6.8322 H       1  LIG1        0.0624
     15 C          -3.7103    3.5580    6.0332 C.3     1  LIG1        0.0265
     16 H          -3.4924    4.5016    6.0848 H       1  LIG1        0.0450
     17 H          -3.6990    3.1938    6.9328 H       1  LIG1        0.0450
     18 C           0.4632    1.8995    4.2298 C.ar    1  LIG1       -0.0568
     19 H           0.4776    1.1729    4.8103 H       1  LIG1        0.0621
     20 C          -0.4902    0.0576    8.7705 C.ar    1  LIG1       -0.0506
     21 H          -0.3284   -0.5855    9.4226 H       1  LIG1        0.0625
     22 C          -1.6300   -0.0055    8.0338 C.ar    1  LIG1       -0.0189
     23 H          -2.2599   -0.6695    8.2041 H       1  LIG1        0.0654
     24 C          -5.0738    3.3814    5.4285 C.3     1  LIG1        0.0607
     25 H          -5.7305    3.8351    5.9810 H       1  LIG1        0.0572
     26 H          -5.0890    3.7904    4.5484 H       1  LIG1        0.0572
     27 C          -4.4761    1.3287    4.5129 C.3     1  LIG1        0.0986
     28 H          -4.5221    1.6751    3.6077 H       1  LIG1        0.0611
     29 H          -4.7012    0.3857    4.4813 H       1  LIG1        0.0611
     30 C           2.5354    2.1883    9.1204 C.ar    1  LIG1       -0.0612
     31 H           3.3276    2.2152    9.6063 H       1  LIG1        0.0618
     32 C          -0.3829    4.0295    3.6013 C.ar    1  LIG1       -0.0568
     33 H          -0.9465    4.7530    3.7547 H       1  LIG1        0.0621
     34 C           2.2418    3.1999    8.2010 C.ar    1  LIG1       -0.0612
     35 H           2.8298    3.9136    8.1002 H       1  LIG1        0.0618
     36 C           1.6575    1.1631    9.3030 C.ar    1  LIG1       -0.0540
     37 H           1.8501    0.5003    9.9257 H       1  LIG1        0.0624
     38 C           0.4523    4.0283    2.4874 C.ar    1  LIG1       -0.0614
     39 H           0.4431    4.7481    1.8989 H       1  LIG1        0.0618
     40 C           1.2862    2.9675    2.2584 C.ar    1  LIG1       -0.0617
     41 H           1.8476    2.9725    1.5172 H       1  LIG1        0.0618
     42 C           1.2979    1.9032    3.1103 C.ar    1  LIG1       -0.0614
     43 H           1.8611    1.1815    2.9466 H       1  LIG1        0.0618
@<TRIPOS>BOND
     1    41    40    1
     2    39    38    1
     3    40    38   ar
     4    40    42   ar
     5    38    32   ar
     6    43    42    1
     7    42    18   ar
     8    32    33    1
     9    32     5   ar
    10    28    27    1
    11    18     5   ar
    12    18    19    1
    13     8     7    1
    14    29    27    1
    15     5     9    1
    16    27     7    1
    17    27     1    1
    18    26    24    1
    19     7     3    1
    20     7     2    1
    21     3     9    1
    22     3    15    1
    23     1    24    1
    24    24    25    1
    25    24    15    1
    26     9    10    1
    27     9     4    1
    28    15    16    1
    29    15    17    1
    30     2    11    1
    31     4    11   ar
    32     4     6   ar
    33    14    13    1
    34    11    22   ar
    35    13     6   ar
    36    13    34   ar
    37     6    12   ar
    38    22    23    1
    39    22    20   ar
    40    35    34    1
    41    34    30   ar
    42    12    20   ar
    43    12    36   ar
    44    20    21    1
    45    30    36   ar
    46    30    31    1
    47    36    37    1
