@<TRIPOS>MOLECULE
unk
 48 52 0 0 0
SMALL
GASTEIGER

@<TRIPOS>ATOM
      1 C           2.1151   10.6744    5.1097 C.ar    1  LIG1        0.0236
      2 C          -0.0223   10.7398    6.3336 C.ar    1  LIG1       -0.0173
      3 C           1.8422    9.3699    4.7832 C.ar    1  LIG1        0.1280
      4 C           1.1747   11.3924    5.9077 C.ar    1  LIG1       -0.0094
      5 C           1.3937   12.7160    6.3364 C.ar    1  LIG1       -0.0536
      6 H           2.1690   13.1596    6.0788 H       1  LIG1        0.0624
      7 C          -0.2389    9.4051    5.9607 C.ar    1  LIG1       -0.0506
      8 H          -1.0201    8.9782    6.2323 H       1  LIG1        0.0625
      9 C           0.6570    8.7287    5.2176 C.ar    1  LIG1       -0.0189
     10 H           0.4989    7.8404    4.9906 H       1  LIG1        0.0654
     11 C          -0.9498   11.4555    7.1233 C.ar    1  LIG1       -0.0540
     12 H          -1.7415   11.0417    7.3837 H       1  LIG1        0.0624
     13 C           0.4778   13.3560    7.1270 C.ar    1  LIG1       -0.0612
     14 H           0.6500   14.2238    7.4153 H       1  LIG1        0.0618
     15 C          -0.7074   12.7318    7.5064 C.ar    1  LIG1       -0.0612
     16 H          -1.3316   13.1894    8.0235 H       1  LIG1        0.0618
     17 C           3.3998   11.3247    4.6382 C.3     1  LIG1        0.0682
     18 H           3.7851   11.7956    5.4064 H       1  LIG1        0.0565
     19 C           3.2136   12.3503    3.5277 C.ar    1  LIG1       -0.0256
     20 C           6.2972    8.9035    4.8921 C.ar    1  LIG1       -0.0332
     21 C           5.0968    9.6861    5.3450 C.3     1  LIG1        0.0279
     22 H           4.4913    9.0974    5.8230 H       1  LIG1        0.0477
     23 H           5.3814   10.3825    5.9570 H       1  LIG1        0.0477
     24 C           7.3395    9.5304    4.2485 C.ar    1  LIG1       -0.0573
     25 H           7.2927   10.4386    4.0541 H       1  LIG1        0.0621
     26 C           6.4061    7.5534    5.1562 C.ar    1  LIG1       -0.0573
     27 H           5.6999    7.1145    5.5747 H       1  LIG1        0.0621
     28 C           2.0975   12.4031    2.7334 C.ar    1  LIG1       -0.0568
     29 H           1.4054   11.7974    2.8739 H       1  LIG1        0.0621
     30 C           4.2161   13.2790    3.3212 C.ar    1  LIG1       -0.0568
     31 H           4.9738   13.2700    3.8606 H       1  LIG1        0.0621
     32 C           1.9874   13.3472    1.7243 C.ar    1  LIG1       -0.0614
     33 H           1.2262   13.3665    1.1905 H       1  LIG1        0.0618
     34 C           4.0978   14.2203    2.3195 C.ar    1  LIG1       -0.0614
     35 H           4.7771   14.8409    2.1921 H       1  LIG1        0.0618
     36 C           2.9946   14.2518    1.5104 C.ar    1  LIG1       -0.0617
     37 H           2.9290   14.8777    0.8259 H       1  LIG1        0.0618
     38 C           8.5189    7.4389    4.1889 C.ar    1  LIG1       -0.0617
     39 H           9.2625    6.9357    3.9471 H       1  LIG1        0.0618
     40 C           8.4826    8.7818    3.8848 C.ar    1  LIG1       -0.0615
     41 H           9.1958    9.1868    3.4486 H       1  LIG1        0.0618
     42 C           7.5152    6.8533    4.8214 C.ar    1  LIG1       -0.0615
     43 H           7.5714    5.9504    5.0381 H       1  LIG1        0.0618
     44 N           4.3857   10.2963    4.2094 N.3     1  LIG1       -0.2550
     45 O           2.6932    8.5869    4.0504 O.3     1  LIG1       -0.4762
     46 C           3.7418    9.3304    3.3798 C.3     1  LIG1        0.1444
     47 H           4.4082    8.7047    3.0543 H       1  LIG1        0.0873
     48 H           3.3623    9.7829    2.6116 H       1  LIG1        0.0873
@<TRIPOS>BOND
     1    37    36    1
     2    33    32    1
     3    36    32   ar
     4    36    34   ar
     5    32    28   ar
     6    35    34    1
     7    34    30   ar
     8    48    46    1
     9    28    29    1
    10    28    19   ar
    11    47    46    1
    12    30    19   ar
    13    30    31    1
    14    46    45    1
    15    46    44    1
    16    41    40    1
    17    19    17    1
    18    40    38   ar
    19    40    24   ar
    20    39    38    1
    21    45     3    1
    22    25    24    1
    23    38    42   ar
    24    44    17    1
    25    44    21    1
    26    24    20   ar
    27    17     1    1
    28    17    18    1
    29     3     1   ar
    30     3     9   ar
    31    42    43    1
    32    42    26   ar
    33    20    26   ar
    34    20    21    1
    35    10     9    1
    36     1     4   ar
    37    26    27    1
    38     9     7   ar
    39    21    22    1
    40    21    23    1
    41     4     2   ar
    42     4     5   ar
    43     7     8    1
    44     7     2   ar
    45     6     5    1
    46     2    11   ar
    47     5    13   ar
    48    11    12    1
    49    11    15   ar
    50    13    14    1
    51    13    15   ar
    52    15    16    1
