@<TRIPOS>MOLECULE
C30 H34 O10
 74 79 0 0 0
SMALL
GASTEIGER

@<TRIPOS>ATOM
      1 O           6.3660    7.6782    9.3233 O.2     1  LIG1       -0.2453
      2 O           4.7499    9.0781    8.7129 O.3     1  LIG1       -0.4647
      3 O           2.4193    8.6619    6.7914 O.2     1  LIG1       -0.2453
      4 O           3.9875   10.1481    6.1953 O.3     1  LIG1       -0.4647
      5 O           1.6165    1.3795    4.9813 O.2     1  LIG1       -0.2453
      6 O           2.9344   -0.3899    4.7878 O.3     1  LIG1       -0.4647
      7 O           5.8843   -0.6036    6.6100 O.2     1  LIG1       -0.2453
      8 O           3.9394    0.1502    7.4011 O.3     1  LIG1       -0.4647
      9 O           8.4028    4.1024    2.8782 O.3     1  LIG1       -0.3474
     10 O           7.2037    5.9310    2.0027 O.3     1  LIG1       -0.3474
     11 C           6.9184    4.7086    4.6997 C.3     1  LIG1        0.0524
     12 C           6.4295    5.9249    5.5046 C.2     1  LIG1       -0.0510
     13 C           5.4471    6.2285    4.6617 C.2     1  LIG1       -0.0510
     14 C           5.7037    5.0659    3.7152 C.3     1  LIG1        0.0524
     15 C           5.1226    3.7231    4.1902 C.2     1  LIG1       -0.0510
     16 C           6.1520    3.4213    4.9761 C.2     1  LIG1       -0.0510
     17 C           6.6670    6.5538    6.8173 C.3     1  LIG1        0.0020
     18 C           5.5749    7.5699    7.0936 C.2     1  LIG1        0.0508
     19 C           4.6157    7.9082    6.2179 C.2     1  LIG1        0.0508
     20 C           4.4347    7.2822    4.8552 C.3     1  LIG1        0.0020
     21 C           3.8895    2.9423    4.0555 C.3     1  LIG1        0.0020
     22 C           3.9548    1.7272    4.9381 C.2     1  LIG1        0.0508
     23 C           4.9981    1.4169    5.7291 C.2     1  LIG1        0.0508
     24 C           6.2560    2.2322    5.8345 C.3     1  LIG1        0.0020
     25 C           5.6254    8.1106    8.4823 C.2     1  LIG1        0.3357
     26 C           4.6631    9.5858   10.0558 C.3     1  LIG1        0.0820
     27 C           3.5479    8.9329    6.4822 C.2     1  LIG1        0.3357
     28 C           3.0548   11.2304    6.4114 C.3     1  LIG1        0.0820
     29 C           2.7059    0.9059    4.9243 C.2     1  LIG1        0.3357
     30 C           1.7787   -1.2508    4.8517 C.3     1  LIG1        0.0820
     31 C           5.0000    0.2020    6.6048 C.2     1  LIG1        0.3357
     32 C           3.8525   -1.0059    8.2681 C.3     1  LIG1        0.0820
     33 C           8.3373    4.6684    4.1902 C.3     1  LIG1        0.0651
     34 C           5.9367    5.2989    2.2367 C.3     1  LIG1        0.0651
     35 C           8.3021    5.0398    1.8049 C.3     1  LIG1        0.1700
     36 C           9.5336    5.9253    1.6927 C.3     1  LIG1        0.0014
     37 C           9.5086    6.7925    0.4473 C.3     1  LIG1       -0.0482
     38 C           9.3037    5.9600   -0.8152 C.3     1  LIG1       -0.0527
     39 C           8.0859    5.0745   -0.7047 C.3     1  LIG1       -0.0482
     40 C           8.1464    4.2032    0.5423 C.3     1  LIG1        0.0014
     41 H           6.6898    5.8947    7.5030 H       1  LIG1        0.0361
     42 H           7.5288    7.0006    6.8104 H       1  LIG1        0.0361
     43 H           4.5272    7.9555    4.1677 H       1  LIG1        0.0361
     44 H           3.5549    6.9068    4.7688 H       1  LIG1        0.0361
     45 H           3.1364    3.4850    4.3059 H       1  LIG1        0.0361
     46 H           3.7689    2.6790    3.1418 H       1  LIG1        0.0361
     47 H           7.0169    1.7037    5.5616 H       1  LIG1        0.0361
     48 H           6.4051    2.5015    6.7430 H       1  LIG1        0.0361
     49 H           4.4110    8.8757   10.6655 H       1  LIG1        0.0661
     50 H           5.5024    9.9306   10.3442 H       1  LIG1        0.0661
     51 H           4.0052   10.2714   10.1231 H       1  LIG1        0.0661
     52 H           3.4438   12.0649    6.1834 H       1  LIG1        0.0661
     53 H           2.2652   11.1039    5.8846 H       1  LIG1        0.0661
     54 H           2.7869   11.2630    7.3372 H       1  LIG1        0.0661
     55 H           1.3279   -1.1426    5.7136 H       1  LIG1        0.0661
     56 H           1.1337   -1.0202    4.1781 H       1  LIG1        0.0661
     57 H           2.0076   -2.1628    4.7619 H       1  LIG1        0.0661
     58 H           3.0656   -0.9651    8.8122 H       1  LIG1        0.0661
     59 H           3.8210   -1.8098    7.7517 H       1  LIG1        0.0661
     60 H           4.6146   -1.0508    8.8485 H       1  LIG1        0.0661
     61 H           8.8922    4.1441    4.7895 H       1  LIG1        0.0573
     62 H           8.7113    5.5580    4.1764 H       1  LIG1        0.0573
     63 H           5.2330    5.8580    1.8827 H       1  LIG1        0.0573
     64 H           5.9033    4.4644    1.7635 H       1  LIG1        0.0573
     65 H           9.6016    6.4783    2.4837 H       1  LIG1        0.0317
     66 H          10.3284    5.3683    1.6771 H       1  LIG1        0.0317
     67 H           8.7674    7.4128    0.5095 H       1  LIG1        0.0267
     68 H          10.3089    7.3067    0.3679 H       1  LIG1        0.0267
     69 H           9.2468    6.5170   -1.5925 H       1  LIG1        0.0265
     70 H          10.0840    5.3867   -0.9379 H       1  LIG1        0.0265
     71 H           7.2966    5.6376   -0.6632 H       1  LIG1        0.0267
     72 H           7.9893    4.5276   -1.4975 H       1  LIG1        0.0267
     73 H           8.8921    3.5931    0.4663 H       1  LIG1        0.0317
     74 H           7.3495    3.6605    0.6166 H       1  LIG1        0.0317
@<TRIPOS>BOND
     1    69    38    1
     2    72    39    1
     3    70    38    1
     4    38    39    1
     5    38    37    1
     6    39    71    1
     7    39    40    1
     8    68    37    1
     9    37    67    1
    10    37    36    1
    11    73    40    1
    12    40    74    1
    13    40    35    1
    14    66    36    1
    15    36    35    1
    16    36    65    1
    17    64    34    1
    18    35    10    1
    19    35     9    1
    20    63    34    1
    21    10    34    1
    22    34    14    1
    23     9    33    1
    24    46    21    1
    25    14    15    1
    26    14    13    1
    27    14    11    1
    28    21    15    1
    29    21    45    1
    30    21    22    1
    31    43    20    1
    32    62    33    1
    33    56    30    1
    34    15    16    2
    35    33    11    1
    36    33    61    1
    37    13    20    1
    38    13    12    2
    39    11    16    1
    40    11    12    1
    41    57    30    1
    42    44    20    1
    43     6    30    1
    44     6    29    1
    45    30    55    1
    46    20    19    1
    47    29    22    1
    48    29     5    2
    49    22    23    2
    50    16    24    1
    51    12    17    1
    52    47    24    1
    53    23    24    1
    54    23    31    1
    55    24    48    1
    56    53    28    1
    57    52    28    1
    58     4    28    1
    59     4    27    1
    60    19    27    1
    61    19    18    2
    62    28    54    1
    63    27     3    2
    64    31     7    2
    65    31     8    1
    66    42    17    1
    67    17    18    1
    68    17    41    1
    69    18    25    1
    70     8    32    1
    71    59    32    1
    72    32    58    1
    73    32    60    1
    74    25     2    1
    75    25     1    2
    76     2    26    1
    77    26    51    1
    78    26    50    1
    79    26    49    1
