@<TRIPOS>MOLECULE
5-(1,2-dihydro-1,1-dimethylbenzo(cd)indolium-2-yl)- 2,2-dimethyl-4,6-dioxo-1,3-dioxane-5-ide
 43 46 0 0 0
SMALL
GASTEIGER

@<TRIPOS>ATOM
      1 O           8.7588    5.0407   -3.2318 O.2     1  LIG1       -0.2492
      2 O           6.7058    3.5190    0.7216 O.2     1  LIG1       -0.2492
      3 O           8.4199    6.3665   -1.4952 O.3     1  LIG1       -0.4216
      4 O           7.3492    5.6197    0.4693 O.3     1  LIG1       -0.4216
      5 N           8.3624    1.7415   -1.9263 N.pl3   1  LIG1       -0.3730
      6 C           7.6095    0.4666   -1.9758 C.ar    1  LIG1        0.1543
      7 C           8.0923   -0.8010   -2.0812 C.ar    1  LIG1        0.0043
      8 C           7.1235   -1.8423   -2.0333 C.ar    1  LIG1       -0.0552
      9 C           5.7777   -1.6058   -1.8626 C.ar    1  LIG1       -0.0536
     10 C           3.9479    0.1449   -1.5810 C.ar    1  LIG1       -0.0538
     11 C           3.6600    1.4863   -1.5102 C.ar    1  LIG1       -0.0607
     12 C           4.6578    2.4920   -1.6239 C.ar    1  LIG1       -0.0516
     13 C           5.9600    2.1055   -1.7977 C.ar    1  LIG1        0.0298
     14 C           5.2887   -0.2810   -1.7500 C.ar    1  LIG1       -0.0113
     15 C           6.2473    0.7413   -1.8344 C.ar    1  LIG1        0.0565
     16 C           7.2012    2.9002   -2.1094 C.3     1  LIG1        0.1570
     17 C           7.4840    4.1729   -1.4291 C.3     1  LIG1        0.2555
     18 C           8.2181    5.1545   -2.1260 C.2     1  LIG1        0.3361
     19 C           7.5154    6.7247   -0.4353 C.3     1  LIG1        0.2540
     20 C           7.1301    4.3611   -0.0589 C.2     1  LIG1        0.3361
     21 C           8.2090    7.7991    0.3524 C.3     1  LIG1        0.0128
     22 C           6.1824    7.1532   -1.0080 C.3     1  LIG1        0.0128
     23 C           9.0557    1.8665   -0.6078 C.3     1  LIG1        0.0818
     24 C           9.3822    1.8360   -3.0340 C.3     1  LIG1        0.0818
     25 H           9.1301   -1.0248   -2.1573 H       1  LIG1        0.0681
     26 H           7.4359   -2.7692   -2.0922 H       1  LIG1        0.0620
     27 H           5.1791   -2.3090   -1.7754 H       1  LIG1        0.0624
     28 H           3.2191   -0.5022   -1.5336 H       1  LIG1        0.0624
     29 H           2.7227    1.7457   -1.3924 H       1  LIG1        0.0618
     30 H           4.3875    3.4609   -1.5949 H       1  LIG1        0.0623
     31 H           7.2049    3.0528   -3.0733 H       1  LIG1        0.1078
     32 H           9.1683    7.4761    0.6250 H       1  LIG1        0.0304
     33 H           7.6053    8.0483    1.0793 H       1  LIG1        0.0304
     34 H           8.3485    8.6471   -0.2026 H       1  LIG1        0.0304
     35 H           6.3391    7.8932   -1.6404 H       1  LIG1        0.0304
     36 H           5.6299    7.5028   -0.3156 H       1  LIG1        0.0304
     37 H           5.7395    6.4005   -1.4894 H       1  LIG1        0.0304
     38 H           8.3719    1.8131    0.1056 H       1  LIG1        0.0931
     39 H           9.4976    2.7400   -0.5820 H       1  LIG1        0.0931
     40 H           9.6328    1.2028   -0.5402 H       1  LIG1        0.0931
     41 H          10.0554    1.1659   -2.9050 H       1  LIG1        0.0931
     42 H           9.7809    2.7336   -3.0290 H       1  LIG1        0.0931
     43 H           8.9183    1.6618   -3.9094 H       1  LIG1        0.0931
@<TRIPOS>BOND
     1    43    24    1
     2     1    18    2
     3    31    16    1
     4    24    42    1
     5    24    41    1
     6    24     5    1
     7    25     7    1
     8    18     3    1
     9    18    17    1
    10    16     5    1
    11    16    13    1
    12    16    17    1
    13    26     8    1
    14     7     8   ar
    15     7     6   ar
    16     8     9   ar
    17     6     5    1
    18     6    15   ar
    19     5    23    1
    20     9    27    1
    21     9    14   ar
    22    15    13   ar
    23    15    14   ar
    24    13    12   ar
    25    14    10   ar
    26    35    22    1
    27    12    30    1
    28    12    11   ar
    29    10    28    1
    30    10    11   ar
    31    11    29    1
    32     3    19    1
    33    37    22    1
    34    17    20    1
    35    22    19    1
    36    22    36    1
    37    23    39    1
    38    23    40    1
    39    23    38    1
    40    19    21    1
    41    19     4    1
    42    34    21    1
    43    20     4    1
    44    20     2    2
    45    21    32    1
    46    21    33    1
