@<TRIPOS>MOLECULE
?
 38 40 0 0 0
SMALL
GASTEIGER

@<TRIPOS>ATOM
      1 S           4.4590    4.6491    9.8986 S.O2    1  LIG1        0.0584
      2 O           4.9497    6.7452    5.6112 O.3     1  LIG1       -0.3642
      3 O           2.1872    9.0868    7.2513 O.2     1  LIG1       -0.2969
      4 O           5.8041    5.0026    9.5541 O.2     1  LIG1       -0.1531
      5 O           4.1034    3.2804   10.0937 O.2     1  LIG1       -0.1531
      6 N           3.5292    5.1959    8.6828 N.3     1  LIG1       -0.1892
      7 C           4.0010    5.5609   11.3359 C.ar    1  LIG1        0.1053
      8 C           2.9769    5.0891   12.1299 C.ar    1  LIG1       -0.0351
      9 H           2.5887    4.2639   11.9496 H       1  LIG1        0.0637
     10 C           2.5327    5.8481   13.1917 C.ar    1  LIG1       -0.0570
     11 H           1.8525    5.5188   13.7338 H       1  LIG1        0.0621
     12 C           3.0804    7.0900   13.4650 C.ar    1  LIG1       -0.0503
     13 C           4.1131    7.5421   12.6664 C.ar    1  LIG1       -0.0570
     14 H           4.5013    8.3686   12.8453 H       1  LIG1        0.0621
     15 C           4.5783    6.7866   11.6068 C.ar    1  LIG1       -0.0351
     16 H           5.2763    7.1018   11.0780 H       1  LIG1        0.0637
     17 C           3.6556    6.6089    8.3071 C.3     1  LIG1        0.0296
     18 H           4.5946    6.8472    8.2528 H       1  LIG1        0.0449
     19 H           3.2439    7.1633    8.9888 H       1  LIG1        0.0449
     20 C           2.9826    6.8693    6.9603 C.3     1  LIG1        0.0614
     21 H           2.0492    6.5745    7.0109 H       1  LIG1        0.0419
     22 C           3.0141    8.3867    6.7211 C.2     1  LIG1        0.1432
     23 C           4.1208    8.9607    5.8900 C.3     1  LIG1        0.0362
     24 H           4.8478    9.2361    6.4711 H       1  LIG1        0.0370
     25 H           3.7962    9.7465    5.4228 H       1  LIG1        0.0370
     26 C           4.6440    7.9512    4.8721 C.3     1  LIG1        0.0843
     27 H           5.4169    8.2890    4.3746 H       1  LIG1        0.0645
     28 C           3.5369    7.4987    3.9700 C.2     1  LIG1       -0.0567
     29 H           3.2979    7.8920    3.1617 H       1  LIG1        0.0595
     30 C           2.9632    6.4550    4.5169 C.2     1  LIG1       -0.0564
     31 H           2.2418    5.9833    4.1664 H       1  LIG1        0.0595
     32 C           3.6673    6.1504    5.8002 C.3     1  LIG1        0.0884
     33 H           3.7335    5.1858    5.9578 H       1  LIG1        0.0648
     34 C           2.5576    7.9162   14.6113 C.3     1  LIG1       -0.0397
     35 H           2.6692    7.4323   15.4332 H       1  LIG1        0.0278
     36 H           1.6258    8.1020   14.4721 H       1  LIG1        0.0278
     37 H           3.0447    8.7427   14.6585 H       1  LIG1        0.0278
     38 H           2.7767    5.0205    8.8484 H       1  LIG1        0.1480
@<TRIPOS>BOND
     1    29    28    1
     2    28    30    2
     3    28    26    1
     4    31    30    1
     5    27    26    1
     6    30    32    1
     7    26     2    1
     8    26    23    1
     9    25    23    1
    10     2    32    1
    11    32    33    1
    12    32    20    1
    13    23    24    1
    14    23    22    1
    15    22    20    1
    16    22     3    2
    17    20    21    1
    18    20    17    1
    19    18    17    1
    20    17     6    1
    21    17    19    1
    22     6    38    1
    23     6     1    1
    24     4     1    2
    25     1     5    2
    26     1     7    1
    27    16    15    1
    28     7    15   ar
    29     7     8   ar
    30    15    13   ar
    31     9     8    1
    32     8    10   ar
    33    13    14    1
    34    13    12   ar
    35    10    12   ar
    36    10    11    1
    37    12    34    1
    38    36    34    1
    39    34    37    1
    40    34    35    1
