@<TRIPOS>MOLECULE
?
 24 24 0 0 0
SMALL
GASTEIGER

@<TRIPOS>ATOM
      1 C           9.8816    0.2700    3.1906 C.3     1  LIG1       -0.0081
      2 H          10.4481   -0.4962    3.3051 H       1  LIG1        0.0347
      3 H           9.9336    0.5738    2.2813 H       1  LIG1        0.0347
      4 H           8.9747    0.0322    3.3970 H       1  LIG1        0.0347
      5 C          11.9954    2.0220    3.6656 C.3     1  LIG1       -0.0081
      6 H          12.6037    1.2880    3.7725 H       1  LIG1        0.0347
      7 H          12.3204    2.7808    4.1551 H       1  LIG1        0.0347
      8 H          11.9268    2.2474    2.7348 H       1  LIG1        0.0347
      9 C           9.4114    2.8914    4.0583 C.3     1  LIG1        0.1668
     10 C          10.0224    4.1125    3.7304 C.1     1  LIG1        0.0883
     11 C           7.9486    2.7491    4.1372 C.ar    1  LIG1       -0.0143
     12 C           7.3355    1.8181    4.9783 C.ar    1  LIG1       -0.0548
     13 H           7.8583    1.2896    5.5384 H       1  LIG1        0.0621
     14 C           5.9552    1.6719    4.9880 C.ar    1  LIG1       -0.0431
     15 H           5.5582    1.0387    5.5414 H       1  LIG1        0.0632
     16 C           5.1749    2.4662    4.1778 C.ar    1  LIG1        0.0410
     17 C           5.7506    3.4380    3.3799 C.ar    1  LIG1       -0.0431
     18 H           5.2175    3.9969    2.8626 H       1  LIG1        0.0632
     19 C           7.1276    3.5709    3.3591 C.ar    1  LIG1       -0.0548
     20 H           7.5152    4.2198    2.8167 H       1  LIG1        0.0621
     21 N          10.5020    5.1323    3.4753 N.1     1  LIG1       -0.1946
     22 O          10.5004    0.9941    5.6126 O.3     1  LIG1       -0.1715
     23 S          10.4137    1.5649    4.2763 S.3     1  LIG1       -0.0794
     24 CL          3.4461    2.2323    4.1797 Cl      1  LIG1       -0.0835
@<TRIPOS>BOND
     1     3     1    1
     2     8     5    1
     3    20    19    1
     4    18    17    1
     5     1     2    1
     6     1     4    1
     7     1    23    1
     8    19    17   ar
     9    19    11   ar
    10    17    16   ar
    11    21    10    3
    12     5     6    1
    13     5     7    1
    14     5    23    1
    15    10     9    1
    16     9    11    1
    17     9    23    1
    18    11    12   ar
    19    16    24    1
    20    16    14   ar
    21    23    22    1
    22    12    14   ar
    23    12    13    1
    24    14    15    1
