@<TRIPOS>MOLECULE
C10 H6 O8 . 2(C H4 O)
 36 32 0 0 0
SMALL
GASTEIGER

@<TRIPOS>ATOM
      1 O           3.8591   -7.8682   10.7692 O.2     1  LIG1       -0.2455
      2 O           2.2897   -5.5595   11.1154 O.3     1  LIG1       -0.4799
      3 H           2.0534   -5.2656   11.8667 H       1  LIG1        0.2951
      4 O           2.5186   -8.5187    9.0815 O.3     1  LIG1       -0.4773
      5 H           2.3494   -9.1628    9.5936 H       1  LIG1        0.2954
      6 O           3.5980   -3.7367   11.1197 O.2     1  LIG1       -0.2499
      7 O           2.6779   -2.0911   12.9619 O.3     2  LIG2       -0.4773
      8 H           2.9492   -2.7480   12.5141 H       2  LIG2        0.2954
      9 O           4.2390    0.2212   12.6942 O.2     2  LIG2       -0.2499
     10 O           2.9201    2.0260   12.9312 O.3     2  LIG2       -0.4799
     11 H           3.2528    2.2427   12.1912 H       2  LIG2        0.2951
     12 O           1.4950   -5.0700   13.4841 O.3     1  LIG1       -0.3982
     13 O           4.0469   -2.9281   14.5348 O.2     2  LIG2       -0.2455
     14 O           1.6345    0.4526   10.2712 O.3     2  LIG2       -0.3982
     15 C           3.2768   -2.0791   14.1268 C.2     2  LIG2        0.3339
     16 C           2.8587   -0.9360   15.0137 C.2     2  LIG2        0.0561
     17 C           3.6917   -5.2001    9.2582 C.3     1  LIG1        0.1415
     18 C           2.4196   -1.2827   16.2865 C.2     2  LIG2       -0.0501
     19 H           2.4285   -2.1956   16.5497 H       2  LIG2        0.0623
     20 C           2.8544    0.4119   14.6280 C.3     2  LIG2        0.1415
     21 C           3.6921   -6.5228    8.7992 C.2     1  LIG1        0.0561
     22 C           4.1156   -6.7933    7.4991 C.2     1  LIG1       -0.0501
     23 H           4.1098   -7.6896    7.1852 H       1  LIG1        0.0623
     24 C           3.1911   -4.7731   10.6068 C.2     1  LIG1        0.3185
     25 C           3.3516   -7.7000    9.6701 C.2     1  LIG1        0.3339
     26 C           3.4091    0.8605   13.3091 C.2     2  LIG2        0.3185
     27 C           2.1323   -0.8350    9.9535 C.3     2  LIG2        0.0330
     28 H           2.9494   -1.0047   10.4669 H       2  LIG2        0.0521
     29 H           2.3330   -0.8801    8.9954 H       2  LIG2        0.0521
     30 H           1.4584   -1.5104   10.1789 H       2  LIG2        0.0521
     31 C           0.9168   -6.2191   14.0951 C.3     1  LIG1        0.0330
     32 H           1.1950   -6.2647   15.0338 H       1  LIG1        0.0521
     33 H           1.2174   -7.0252   13.6260 H       1  LIG1        0.0521
     34 H          -0.0600   -6.1586   14.0475 H       1  LIG1        0.0521
     35 H           1.1704    0.4411   11.0077 H       2  LIG2        0.2090
     36 H           1.0256   -4.3570   13.7596 H       1  LIG1        0.2090
@<TRIPOS>BOND
     1    23    22    1
     2    22    21    2
     3    21    17    1
     4    21    25    1
     5    29    27    1
     6     4     5    1
     7     4    25    1
     8    17    24    1
     9    25     1    2
    10    27    30    1
    11    27    14    1
    12    27    28    1
    13    14    35    1
    14    24     2    1
    15    24     6    2
    16     2     3    1
    17    11    10    1
    18     8     7    1
    19     9    26    2
    20    10    26    1
    21     7    15    1
    22    26    20    1
    23    12    36    1
    24    12    31    1
    25    33    31    1
    26    34    31    1
    27    31    32    1
    28    15    13    2
    29    15    16    1
    30    20    16    1
    31    16    18    2
    32    18    19    1
