@<TRIPOS>MOLECULE
?
 30 30 0 0 0
SMALL
GASTEIGER

@<TRIPOS>ATOM
      1 H           4.7735    5.1264    3.5697 H       1  LIG1        0.0676
      2 H           3.6174    8.3473    6.7694 H       1  LIG1        0.0656
      3 H           6.8907   -1.6583    5.3777 H       2  LIG2        0.0830
      4 H           6.4339    2.2050    5.3569 H       2  LIG2        0.0830
      5 H           6.1801    2.2842    7.6918 H       2  LIG2        0.0640
      6 H           6.6953   -1.7778    7.6791 H       2  LIG2        0.0640
      7 H           5.4769   -1.5173    9.5135 H       2  LIG2        0.1453
      8 H           5.7573   -0.9234   10.8591 H       2  LIG2        0.1453
      9 C           6.2965    0.2486    9.4742 C.2     2  LIG2        0.2416
     10 C           6.4111    0.2558    7.9660 C.ar    2  LIG2        0.0393
     11 C           4.5969    6.2217    7.9957 C.2     1  LIG1        0.3397
     12 C           6.6235   -0.9167    7.2563 C.ar    2  LIG2       -0.0315
     13 C           4.7646    5.5409    5.5288 C.ar    1  LIG1        0.1402
     14 C           6.7328   -0.8529    5.8803 C.ar    2  LIG2        0.0283
     15 C           6.3330    1.4526    7.2661 C.ar    2  LIG2       -0.0315
     16 C           3.8643    7.6550    6.1189 C.ar    1  LIG1       -0.0068
     17 C           6.4608    1.4286    5.8823 C.ar    2  LIG2        0.0283
     18 C           4.4289    6.4443    6.5204 C.ar    1  LIG1        0.0968
     19 C           3.9627    6.9772    3.8363 C.ar    1  LIG1        0.1612
     20 C           3.6310    7.9058    4.7897 C.ar    1  LIG1        0.1594
     21 C           4.5399    5.7872    4.1784 C.ar    1  LIG1        0.0125
     22 N           6.6547    0.2897    5.1976 N.ar    2  LIG2       -0.2632
     23 N           5.8232   -0.8687   10.0118 N.am    2  LIG2       -0.3253
     24 O           4.7489    4.9910    8.3747 O.3     1  LIG1       -0.4771
     25 H           4.6889    4.9462    9.2114 H       1  LIG1        0.2954
     26 O           4.5382    7.1774    8.7593 O.2     1  LIG1       -0.2450
     27 O           6.6429    1.2335   10.1310 O.2     2  LIG2       -0.2704
     28 F           5.3480    4.3707    5.8437 F       1  LIG1       -0.2045
     29 F           3.7083    7.2524    2.5422 F       1  LIG1       -0.2024
     30 F           3.0871    9.0865    4.3996 F       1  LIG1       -0.2025
@<TRIPOS>BOND
     1    29    19    1
     2     1    21    1
     3    19    21   ar
     4    19    20   ar
     5    21    13   ar
     6    30    20    1
     7    20    16   ar
     8    22    14   ar
     9    22    17   ar
    10     4    17    1
    11     3    14    1
    12    13    28    1
    13    13    18   ar
    14    14    12   ar
    15    17    15   ar
    16    16    18   ar
    17    16     2    1
    18    18    11    1
    19    12     6    1
    20    12    10   ar
    21    15     5    1
    22    15    10   ar
    23    10     9    1
    24    11    24    1
    25    11    26    2
    26    24    25    1
    27     9    23   am
    28     9    27    2
    29     7    23    1
    30    23     8    1
