@<TRIPOS>MOLECULE
?
 36 37 0 0 0
SMALL
GASTEIGER

@<TRIPOS>ATOM
      1 C           3.3396    7.7839   27.5602 C.3     1  LIG1       -0.0328
      2 H           2.4683    7.7029   27.1269 H       1  LIG1        0.0305
      3 C           3.1631    8.5168   28.9124 C.3     1  LIG1       -0.0491
      4 H           3.8887    8.3273   29.5620 H       1  LIG1        0.0268
      5 H           2.3325    8.3424   29.3773 H       1  LIG1        0.0268
      6 C           3.3807    9.8622   28.1796 C.3     1  LIG1       -0.0414
      7 H           2.4919   10.2863   27.8714 H       1  LIG1        0.0273
      8 H           3.9651   10.5287   28.6243 H       1  LIG1        0.0273
      9 C           4.0098    9.0919   26.9926 C.3     1  LIG1        0.0381
     10 H           3.7340    9.3611   26.0802 H       1  LIG1        0.0397
     11 C           4.1075    6.4780   27.5235 C.3     1  LIG1       -0.0617
     12 H           4.9630    6.5966   28.0170 H       1  LIG1        0.0233
     13 H           4.3160    6.1929   26.6147 H       1  LIG1        0.0233
     14 H           3.5577    5.7892   27.9442 H       1  LIG1        0.0233
     15 C           5.5261    9.0175   27.0402 C.2     1  LIG1        0.2169
     16 O           6.1902    9.3759   28.0231 O.2     1  LIG1       -0.2755
     17 N           6.0934    8.4910   25.9438 N.am    1  LIG1       -0.3060
     18 H           5.5638    8.2651   25.2433 H       1  LIG1        0.1494
     19 CA          7.5211    8.1917   25.8705 C.3     1  LIG1        0.0714
     20 HA          7.8473    8.1444   26.7911 H       1  LIG1        0.0571
     21 C           7.6850    6.7997   25.2329 C.3     1  LIG1        0.0667
     22 H1          7.4077    6.8239   24.2609 H       1  LIG1        0.0579
     23 H2          7.0861    6.1646   25.7471 H       1  LIG1        0.0579
     24 O           9.0383    6.3580   25.2539 O.3     1  LIG1       -0.3928
     25 H           9.2526    6.2156   26.1333 H       1  LIG1        0.2095
     26 C           8.3095    9.2553   25.1305 C.ar    1  LIG1       -0.0250
     27 C           9.6520    9.4615   25.4526 C.ar    1  LIG1       -0.0567
     28 H          10.0666    8.9762   26.2117 H       1  LIG1        0.0621
     29 C          10.4086   10.4030   24.7565 C.ar    1  LIG1       -0.0614
     30 H          11.3182   10.5344   24.9886 H       1  LIG1        0.0618
     31 C           9.8342   11.1456   23.7355 C.ar    1  LIG1       -0.0617
     32 H          10.3665   11.7992   23.2505 H       1  LIG1        0.0618
     33 C           8.5026   10.9380   23.3999 C.ar    1  LIG1       -0.0614
     34 H           8.0642   11.4285   22.6627 H       1  LIG1        0.0618
     35 C           7.7440   10.0013   24.0963 C.ar    1  LIG1       -0.0567
     36 H           6.7947    9.8477   23.8522 H       1  LIG1        0.0621
@<TRIPOS>BOND
     1    34    33    1
     2    32    31    1
     3    33    31   ar
     4    33    35   ar
     5    31    29   ar
     6    36    35    1
     7    35    26   ar
     8    22    21    1
     9    29    30    1
    10    29    27   ar
    11    26    27   ar
    12    26    19    1
    13    21    24    1
    14    21    23    1
    15    21    19    1
    16    18    17    1
    17    24    25    1
    18    27    28    1
    19    19    17    1
    20    19    20    1
    21    17    15   am
    22    10     9    1
    23    13    11    1
    24     9    15    1
    25     9     1    1
    26     9     6    1
    27    15    16    2
    28     2     1    1
    29    11     1    1
    30    11    14    1
    31    11    12    1
    32     1     3    1
    33     7     6    1
    34     6     8    1
    35     6     3    1
    36     3     5    1
    37     3     4    1
