@<TRIPOS>MOLECULE
?
 39 40 0 0 0
SMALL
GASTEIGER

@<TRIPOS>ATOM
      1 O           9.4095    2.0516    4.8294 O.3     1  LIG1       -0.4877
      2 O          12.7237    1.9928    2.4816 O.3     1  LIG1       -0.4874
      3 C          11.5481    3.0392    5.2519 C.2     1  LIG1       -0.0172
      4 C          12.0075    3.5653    4.0633 C.2     1  LIG1       -0.0009
      5 C          11.9170    3.6330    6.5121 C.3     1  LIG1        0.0289
      6 C          10.7757    1.7473    5.1571 C.3     1  LIG1        0.1120
      7 H          11.1701    1.1680    4.4569 H       1  LIG1        0.0745
      8 H          10.8172    1.2641    6.0198 H       1  LIG1        0.0745
      9 C          11.6546    2.9161    2.7471 C.3     1  LIG1        0.1151
     10 H          10.7891    2.4405    2.8132 H       1  LIG1        0.0748
     11 H          11.5910    3.5936    2.0292 H       1  LIG1        0.0748
     12 C           8.5521    0.9749    4.7226 C.ar    1  LIG1        0.1212
     13 C           8.9293   -0.3433    4.8622 C.ar    1  LIG1       -0.0170
     14 H           9.8430   -0.5567    5.0065 H       1  LIG1        0.0657
     15 C           7.9907   -1.3614    4.7934 C.ar    1  LIG1       -0.0470
     16 C           6.6719   -1.0272    4.5457 C.ar    1  LIG1       -0.0586
     17 H           6.0175   -1.7148    4.4881 H       1  LIG1        0.0620
     18 C           6.2882    0.2916    4.3808 C.ar    1  LIG1       -0.0581
     19 H           5.3796    0.5037    4.1990 H       1  LIG1        0.0619
     20 C           7.2260    1.3004    4.4788 C.ar    1  LIG1       -0.0199
     21 H           6.9652    2.2085    4.3813 H       1  LIG1        0.0654
     22 C           8.4265   -2.7834    5.0404 C.3     1  LIG1       -0.0396
     23 H           9.2184   -2.7884    5.6186 H       1  LIG1        0.0278
     24 H           8.6435   -3.2125    4.1860 H       1  LIG1        0.0278
     25 H           7.7008   -3.2772    5.4780 H       1  LIG1        0.0278
     26 C          12.7091    1.3384    1.2644 C.ar    1  LIG1        0.1212
     27 C          13.7760    0.4679    1.0537 C.ar    1  LIG1       -0.0170
     28 H          14.4191    0.3280    1.7374 H       1  LIG1        0.0657
     29 C          13.8957   -0.2021   -0.1761 C.ar    1  LIG1       -0.0470
     30 C          12.9431    0.0214   -1.1508 C.ar    1  LIG1       -0.0586
     31 H          13.0224   -0.4142   -1.9927 H       1  LIG1        0.0620
     32 C          11.8905    0.8591   -0.9226 C.ar    1  LIG1       -0.0581
     33 H          11.2397    0.9858   -1.6046 H       1  LIG1        0.0619
     34 C          11.7500    1.5324    0.2904 C.ar    1  LIG1       -0.0199
     35 H          11.0111    2.1108    0.4428 H       1  LIG1        0.0654
     36 C          15.0520   -1.1333   -0.4191 C.3     1  LIG1       -0.0396
     37 H          14.7190   -2.0495   -0.5184 H       1  LIG1        0.0278
     38 H          15.6700   -1.0902    0.3386 H       1  LIG1        0.0278
     39 H          15.5209   -0.8665   -1.2373 H       1  LIG1        0.0278
@<TRIPOS>BOND
     1    31    30    1
     2    33    32    1
     3    39    36    1
     4    30    32   ar
     5    30    29   ar
     6    32    34   ar
     7    37    36    1
     8    36    29    1
     9    36    38    1
    10    29    27   ar
    11    34    35    1
    12    34    26   ar
    13    27    26   ar
    14    27    28    1
    15    26     2    1
    16    11     9    1
    17     2     9    1
    18     9    10    1
    19     9     4    1
    20     4     3    2
    21    24    22    1
    22    19    18    1
    23    18    20   ar
    24    18    16   ar
    25    21    20    1
    26     7     6    1
    27    20    12   ar
    28    17    16    1
    29    16    15   ar
    30    12     1    1
    31    12    13   ar
    32    15    13   ar
    33    15    22    1
    34     1     6    1
    35    13    14    1
    36    22    25    1
    37    22    23    1
    38     6     3    1
    39     6     8    1
    40     3     5    1
