@<TRIPOS>MOLECULE
(R)-N-(3-buthoxycarbonyl-1-isopropyl)-2,3:5,6-bis-O- isopropylidene-D-mannose-imine N-oxide
 73 74 0 0 0
SMALL
GASTEIGER

@<TRIPOS>ATOM
      1 O           3.2608    1.6335    3.2020 O.3     1  LIG1       -0.1187
      2 O           6.3248    3.2671    5.3160 O.3     1  LIG1       -0.3416
      3 O           7.2339    3.9800    3.3900 O.3     1  LIG1       -0.3407
      4 O           7.1920    1.1862    2.7140 O.3     1  LIG1       -0.3865
      5 O           6.3739    3.6325    0.1160 O.3     1  LIG1       -0.3411
      6 O           6.1404    1.6375   -0.9720 O.3     1  LIG1       -0.3465
      7 O           0.0850   -0.6051    6.6220 O.2     1  LIG1       -0.2509
      8 O           0.9627    0.8407    8.0980 O.3     1  LIG1       -0.4646
      9 N           4.0385    0.9306    3.9860 N.4     1  LIG1       -0.1435
     10 C           5.0986    1.4518    4.5160 C.3     1  LIG1        0.0881
     11 C           5.3811    2.8777    4.3040 C.3     1  LIG1        0.1100
     12 C           6.0508    3.3030    2.9760 C.3     1  LIG1        0.1179
     13 C           6.4236    2.1747    2.0520 C.3     1  LIG1        0.1122
     14 C           7.1639    2.6680    0.8220 C.3     1  LIG1        0.1135
     15 C           7.3510    1.5637   -0.2140 C.3     1  LIG1        0.0797
     16 C           3.6539   -0.4853    4.2420 C.3     1  LIG1        0.0420
     17 C           2.3165   -0.5452    4.9720 C.3     1  LIG1       -0.0247
     18 C           2.3034    0.2396    6.2780 C.3     1  LIG1        0.0464
     19 C           0.9993    0.0959    6.9960 C.2     1  LIG1        0.3071
     20 C          -0.2551    0.7828    8.8960 C.3     1  LIG1        0.0924
     21 C          -1.1903    1.8772    8.5080 C.3     1  LIG1       -0.0188
     22 C          -0.6847    3.2631    8.7780 C.3     1  LIG1       -0.0528
     23 C          -1.6723    4.3495    8.4320 C.3     1  LIG1       -0.0652
     24 C           3.6768   -1.2302    2.9060 C.3     1  LIG1       -0.0287
     25 C           5.1084   -1.4299    2.4180 C.3     1  LIG1       -0.0612
     26 C           2.9410   -2.5282    2.9500 C.3     1  LIG1       -0.0612
     27 C           5.8219    3.0294   -1.0580 C.3     1  LIG1        0.1651
     28 C           4.3190    3.1573   -1.0220 C.3     1  LIG1       -0.0108
     29 C           6.4399    3.6525   -2.2720 C.3     1  LIG1       -0.0108
     30 C           7.1037    4.3335    4.7520 C.3     1  LIG1        0.1655
     31 C           8.4464    4.2975    5.4020 C.3     1  LIG1       -0.0108
     32 C           6.3896    5.6555    4.9100 C.3     1  LIG1       -0.0108
     33 H           7.9062    1.5756    3.0640 H       1  LIG1        0.2100
     34 H           5.6905    0.9166    5.0300 H       1  LIG1        0.0531
     35 H           4.5793    3.3749    4.4240 H       1  LIG1        0.0641
     36 H           5.4825    3.9101    2.5180 H       1  LIG1        0.0650
     37 H           5.6179    1.7673    1.7600 H       1  LIG1        0.0647
     38 H           8.0043    3.0394    1.0640 H       1  LIG1        0.0647
     39 H           8.1083    1.7354   -0.7620 H       1  LIG1        0.0588
     40 H           7.4445    0.7169    0.2000 H       1  LIG1        0.0588
     41 H           4.3157   -0.8727    4.8040 H       1  LIG1        0.0490
     42 H           2.1209   -1.4538    5.1700 H       1  LIG1        0.0286
     43 H           1.6448   -0.1917    4.4040 H       1  LIG1        0.0286
     44 H           2.4479    1.1583    6.0860 H       1  LIG1        0.0378
     45 H           2.9992   -0.0819    6.8380 H       1  LIG1        0.0378
     46 H          -0.0301    0.8727    9.8160 H       1  LIG1        0.0697
     47 H          -0.6802   -0.0559    8.7560 H       1  LIG1        0.0697
     48 H          -2.0006    1.7594    8.9940 H       1  LIG1        0.0298
     49 H          -1.3656    1.8033    7.5780 H       1  LIG1        0.0298
     50 H           0.1027    3.3969    8.2660 H       1  LIG1        0.0264
     51 H          -0.4787    3.3310    9.7020 H       1  LIG1        0.0264
     52 H          -1.3485    5.2261    8.6000 H       1  LIG1        0.0230
     53 H          -2.4584    4.2137    8.9420 H       1  LIG1        0.0230
     54 H          -1.8770    4.2796    7.5060 H       1  LIG1        0.0230
     55 H           3.2399   -0.6750    2.2720 H       1  LIG1        0.0311
     56 H           5.1221   -1.8912    1.5900 H       1  LIG1        0.0233
     57 H           5.5878   -1.9351    3.0640 H       1  LIG1        0.0233
     58 H           5.5204   -0.5811    2.3100 H       1  LIG1        0.0233
     59 H           2.9548   -2.9895    2.1160 H       1  LIG1        0.0233
     60 H           2.0352   -2.3545    3.1800 H       1  LIG1        0.0233
     61 H           3.3374   -3.0814    3.6080 H       1  LIG1        0.0233
     62 H           3.9521    2.7559   -1.8020 H       1  LIG1        0.0281
     63 H           4.0797    4.0759   -0.9980 H       1  LIG1        0.0281
     64 H           3.9802    2.7199   -0.2500 H       1  LIG1        0.0281
     65 H           6.0717    3.2491   -3.0540 H       1  LIG1        0.0281
     66 H           7.3784    3.5147   -2.2600 H       1  LIG1        0.0281
     67 H           6.2542    4.5831   -2.2820 H       1  LIG1        0.0281
     68 H           8.9631    4.9985    5.0280 H       1  LIG1        0.0281
     69 H           8.8676    3.4588    5.2340 H       1  LIG1        0.0281
     70 H           8.3575    4.4214    6.3380 H       1  LIG1        0.0281
     71 H           6.9030    6.3584    4.5380 H       1  LIG1        0.0281
     72 H           6.2509    5.8252    5.8380 H       1  LIG1        0.0281
     73 H           5.5472    5.6136    4.4720 H       1  LIG1        0.0281
@<TRIPOS>BOND
     1    65    29    1
     2    67    29    1
     3    29    66    1
     4    29    27    1
     5    62    28    1
     6    27    28    1
     7    27     6    1
     8    27     5    1
     9    28    63    1
    10    28    64    1
    11     6    15    1
    12    39    15    1
    13    15    40    1
    14    15    14    1
    15     5    14    1
    16    14    38    1
    17    14    13    1
    18    56    25    1
    19    37    13    1
    20    13     4    1
    21    13    12    1
    22    59    26    1
    23    55    24    1
    24    58    25    1
    25    25    24    1
    26    25    57    1
    27    36    12    1
    28     4    33    1
    29    24    26    1
    30    24    16    1
    31    26    60    1
    32    26    61    1
    33    12     3    1
    34    12    11    1
    35     1     9    1
    36     3    30    1
    37     9    16    1
    38     9    10    1
    39    16    41    1
    40    16    17    1
    41    11    35    1
    42    11    10    1
    43    11     2    1
    44    43    17    1
    45    73    32    1
    46    10    34    1
    47    71    32    1
    48    30    32    1
    49    30     2    1
    50    30    31    1
    51    32    72    1
    52    17    42    1
    53    17    18    1
    54    68    31    1
    55    69    31    1
    56    31    70    1
    57    44    18    1
    58    18    45    1
    59    18    19    1
    60     7    19    2
    61    19     8    1
    62    54    23    1
    63    49    21    1
    64     8    20    1
    65    50    22    1
    66    23    52    1
    67    23    22    1
    68    23    53    1
    69    21    22    1
    70    21    20    1
    71    21    48    1
    72    47    20    1
    73    22    51    1
    74    20    46    1
