@<TRIPOS>MOLECULE
?
 40 42 0 0 0
SMALL
GASTEIGER

@<TRIPOS>ATOM
      1 BR          8.6471    0.4914    3.3000 Br      1  LIG1       -0.0495
      2 CL          5.2934    7.5038    4.9479 Cl      1  LIG1       -0.0816
      3 CL          0.1590    5.9537    4.8631 Cl      1  LIG1       -0.0835
      4 S           7.7720    5.4980    1.2817 S.3     1  LIG1       -0.0544
      5 N           5.4415    6.2367    2.2126 N.am    1  LIG1       -0.2150
      6 N           5.7874    3.9701    2.4302 N.am    1  LIG1       -0.1538
      7 O           5.3780    8.4906    1.7518 O.2     1  LIG1       -0.2690
      8 O           7.6951    2.8891    1.6891 O.2     1  LIG1       -0.2680
      9 O           9.9701    6.8551    0.2198 O.2     1  LIG1       -0.2501
     10 O          10.1328    9.0986    0.0892 O.3     1  LIG1       -0.4675
     11 C           6.2278    5.1028    2.0438 C.2     1  LIG1        0.1648
     12 C           5.9592    7.4303    1.7221 C.2     1  LIG1        0.2601
     13 C           7.3266    7.1826    1.1838 C.2     1  LIG1        0.0701
     14 C           6.6213    2.8515    2.2561 C.2     1  LIG1        0.2704
     15 C           8.0892    8.1941    0.7347 C.3     1  LIG1        0.1101
     16 H           7.7301    9.0721    0.6837 H       1  LIG1        0.0481
     17 C           9.4789    7.9456    0.3217 C.2     1  LIG1        0.3162
     18 C          11.5408    8.9375   -0.2559 C.3     1  LIG1        0.0817
     19 H          12.0200    8.5451    0.5043 H       1  LIG1        0.0661
     20 H          11.9276    9.8125   -0.4693 H       1  LIG1        0.0661
     21 H          11.6219    8.3451   -1.0330 H       1  LIG1        0.0661
     22 C           4.1624    6.1689    2.8697 C.ar    1  LIG1        0.0617
     23 C           3.9874    6.7223    4.1204 C.ar    1  LIG1        0.0641
     24 C           2.7516    6.6353    4.7479 C.ar    1  LIG1       -0.0232
     25 H           2.6227    7.0075    5.6121 H       1  LIG1        0.0647
     26 C           1.7234    6.0083    4.1024 C.ar    1  LIG1        0.0425
     27 C           1.8869    5.4303    2.8623 C.ar    1  LIG1       -0.0415
     28 H           1.1681    4.9723    2.4429 H       1  LIG1        0.0633
     29 C           3.1196    5.5295    2.2402 C.ar    1  LIG1       -0.0371
     30 H           3.2459    5.1553    1.3759 H       1  LIG1        0.0637
     31 C           6.0066    1.6044    2.8039 C.ar    1  LIG1        0.0527
     32 C           6.7450    0.5001    3.2371 C.ar    1  LIG1        0.0300
     33 C           6.1122   -0.6342    3.7244 C.ar    1  LIG1       -0.0470
     34 H           6.6279   -1.3709    4.0323 H       1  LIG1        0.0629
     35 C           4.7326   -0.6917    3.7626 C.ar    1  LIG1       -0.0607
     36 H           4.2973   -1.4724    4.0843 H       1  LIG1        0.0618
     37 C           3.9937    0.3778    3.3369 C.ar    1  LIG1       -0.0610
     38 H           3.0448    0.3419    3.3602 H       1  LIG1        0.0618
     39 C           4.6308    1.5059    2.8751 C.ar    1  LIG1       -0.0485
     40 H           4.1050    2.2454    2.5948 H       1  LIG1        0.0625
@<TRIPOS>BOND
     1    21    18    1
     2    20    18    1
     3    18    10    1
     4    18    19    1
     5    10    17    1
     6     9    17    2
     7    17    15    1
     8    16    15    1
     9    15    13    1
    10    13     4    2
    11    13    12    1
    12     4    11    1
    13    30    29    1
    14     8    14    2
    15    12     7    2
    16    12     5   am
    17    11     5    1
    18    11     6    2
    19     5    22    1
    20    29    27   ar
    21    29    22   ar
    22    14     6    1
    23    14    31    1
    24    28    27    1
    25    40    39    1
    26    31    39   ar
    27    31    32   ar
    28    27    26   ar
    29    22    23   ar
    30    39    37   ar
    31    32     1    1
    32    32    33   ar
    33    37    38    1
    34    37    35   ar
    35    33    35   ar
    36    33    34    1
    37    35    36    1
    38    26    24   ar
    39    26     3    1
    40    23    24   ar
    41    23     2    1
    42    24    25    1
