@<TRIPOS>MOLECULE
C2 H5 N O2
 10 9 0 0 0
SMALL
GASTEIGER

@<TRIPOS>ATOM
      1 O           1.9157    3.3004    2.6744 O.co2   1  GLY1       -0.2403
      2 OXT         0.7296    1.4155    2.8459 O.co2   1  GLY1       -0.2403
      3 N           0.6564    1.4897    5.5316 N.4     1  GLY1        0.2267
      4 C           1.3776    2.3831    3.3266 C.2     1  GLY1        0.3996
      5 CA          1.5739    2.4174    4.8427 C.3     1  GLY1        0.0680
      6 H1          0.8343    0.6369    5.2700 H       1  GLY1        0.2000
      7 H2         -0.2035    1.6991    5.3188 H       1  GLY1        0.2000
      8 H3          0.7722    1.5612    6.4317 H       1  GLY1        0.2000
      9 HA1         2.5089    2.1725    5.0572 H       1  GLY1        0.0933
     10 HA2         1.4164    3.3381    5.1718 H       1  GLY1        0.0933
@<TRIPOS>BOND
     1     1     4   ar
     2     2     4   ar
     3     4     5    1
     4     5     9    1
     5     5    10    1
     6     5     3    1
     7     6     3    1
     8     7     3    1
     9     3     8    1
