@<TRIPOS>MOLECULE
?
 36 37 0 0 0
SMALL
GASTEIGER

@<TRIPOS>ATOM
      1 C          11.0779    8.8803    2.7158 C.3     1  LIG1        0.0370
      2 H          11.6374    9.0244    3.4820 H       1  LIG1        0.0524
      3 H          11.0462    7.9430    2.5141 H       1  LIG1        0.0524
      4 H          10.1924    9.1966    2.9035 H       1  LIG1        0.0524
      5 C          11.6586   10.9856    1.8112 C.3     1  LIG1        0.1168
      6 H          11.9560   11.1697    2.7267 H       1  LIG1        0.0652
      7 C          10.3580   11.7516    1.5234 C.3     1  LIG1        0.1122
      8 H           9.7223   11.6883    2.2657 H       1  LIG1        0.0647
      9 C          10.8875   13.1685    1.3412 C.3     1  LIG1        0.1108
     10 H          10.3517   13.6393    0.6696 H       1  LIG1        0.0646
     11 C          10.9487   13.9909    2.6182 C.3     1  LIG1        0.0729
     12 H          11.4106   13.4826    3.3047 H       1  LIG1        0.0584
     13 H          11.4552   14.8002    2.4539 H       1  LIG1        0.0584
     14 C          12.6160   11.6318    0.8195 C.3     1  LIG1        0.1141
     15 H          12.4249   11.2844   -0.0772 H       1  LIG1        0.0674
     16 C          14.0761   11.4638    1.1007 C.ar    1  LIG1        0.0022
     17 C          14.7511   12.1990    2.0805 C.ar    1  LIG1       -0.0484
     18 H          14.2839   12.8227    2.5893 H       1  LIG1        0.0625
     19 C          16.1021   12.0138    2.3040 C.ar    1  LIG1       -0.0106
     20 C          16.7571   11.0366    1.5165 C.ar    1  LIG1        0.1190
     21 C          14.8145   10.5204    0.4067 C.ar    1  LIG1        0.0354
     22 H          14.3757   10.0154   -0.2390 H       1  LIG1        0.0834
     23 C          16.8658   12.8099    3.3251 C.3     1  LIG1       -0.0365
     24 H          17.4848   13.3921    2.8791 H       1  LIG1        0.0279
     25 H          17.3459   12.2114    3.9031 H       1  LIG1        0.0279
     26 H          16.2539   13.3347    3.8449 H       1  LIG1        0.0279
     27 N          16.1197   10.2893    0.6054 N.ar    1  LIG1       -0.2401
     28 N          18.0933   10.7874    1.6668 N.pl3   1  LIG1       -0.3429
     29 H          18.4748   10.1809    1.1909 H       1  LIG1        0.1437
     30 H          18.5526   11.2381    2.2378 H       1  LIG1        0.1437
     31 O          11.6119    9.5916    1.5936 O.3     1  LIG1       -0.3742
     32 O           9.7824   11.3431    0.2873 O.3     1  LIG1       -0.3865
     33 H           9.5451   10.5605    0.3415 H       1  LIG1        0.2100
     34 O           9.6545   14.3336    3.0787 O.3     1  LIG1       -0.3924
     35 H           9.3349   14.9105    2.5908 H       1  LIG1        0.2095
     36 O          12.2618   13.0235    0.8628 O.3     1  LIG1       -0.3611
@<TRIPOS>BOND
     1    22    21    1
     2    15    14    1
     3    32    33    1
     4    32     7    1
     5    21    27   ar
     6    21    16   ar
     7    27    20   ar
     8    10     9    1
     9    14    36    1
    10    14    16    1
    11    14     5    1
    12    36     9    1
    13    16    17   ar
    14    29    28    1
    15     9     7    1
    16     9    11    1
    17    20    28    1
    18    20    19   ar
    19     7     5    1
    20     7     8    1
    21    31     5    1
    22    31     1    1
    23    28    30    1
    24     5     6    1
    25    17    19   ar
    26    17    18    1
    27    19    23    1
    28    13    11    1
    29     3     1    1
    30    35    34    1
    31    11    34    1
    32    11    12    1
    33     1     4    1
    34     1     2    1
    35    24    23    1
    36    23    26    1
    37    23    25    1
