@<TRIPOS>MOLECULE
?
 82 85 0 0 0
SMALL
GASTEIGER

@<TRIPOS>ATOM
      1 S           7.9914   10.8098   27.9896 S.3     1  LIG1        0.0325
      2 N           7.8705   10.4929   24.3436 N.am    1  LIG1       -0.2509
      3 N           6.5974   11.3741   27.3456 N.3     1  LIG1       -0.2286
      4 H           5.8730   11.4677   27.8374 H       1  LIG1        0.1379
      5 C           6.4852   10.9493   19.6884 C.ar    1  LIG1       -0.0617
      6 H           6.0805   11.2629   18.8876 H       1  LIG1        0.0618
      7 C           7.8032   11.1435   19.9118 C.ar    1  LIG1       -0.0614
      8 H           8.3201   11.6093   19.2638 H       1  LIG1        0.0618
      9 C           8.4164   10.6801   21.0587 C.ar    1  LIG1       -0.0559
     10 H           9.3437   10.8288   21.1997 H       1  LIG1        0.0621
     11 C           7.6714    9.9979   21.9996 C.ar    1  LIG1       -0.0148
     12 C           8.2575    9.4924   23.3231 C.3     1  LIG1        0.1177
     13 C           6.6797   10.4566   25.0588 C.2     1  LIG1        0.2472
     14 C           6.6002   11.7204   25.9130 C.3     1  LIG1        0.1395
     15 C           7.6340   11.1213   29.7339 C.3     1  LIG1        0.0399
     16 C           8.8669   10.5889   30.4712 C.3     1  LIG1       -0.0484
     17 H           8.8791    9.6094   30.4223 H       1  LIG1        0.0244
     18 H           8.8314   10.8674   31.4104 H       1  LIG1        0.0244
     19 H           9.6774   10.9481   30.0547 H       1  LIG1        0.0244
     20 C           6.4338   10.5596   30.2213 C.3     1  LIG1       -0.0484
     21 H           6.4189   10.6216   31.2007 H       1  LIG1        0.0244
     22 H           6.3815    9.6188   29.9542 H       1  LIG1        0.0244
     23 H           5.6701   11.0487   29.8508 H       1  LIG1        0.0244
     24 O           8.0687    9.3461   27.8615 O.3     1  LIG1       -0.1455
     25 C           8.4678   11.7590   24.5088 C.ar    1  LIG1        0.0433
     26 C           7.8098   12.4705   25.4965 C.ar    1  LIG1        0.0043
     27 C           8.2622   13.6746   25.8722 C.ar    1  LIG1       -0.0545
     28 H           7.8144   14.1532   26.5592 H       1  LIG1        0.0622
     29 C           9.3801   14.2269   25.2659 C.ar    1  LIG1       -0.0613
     30 H           9.7241   15.0648   25.5511 H       1  LIG1        0.0618
     31 C           9.9755   13.5365   24.2454 C.ar    1  LIG1       -0.0600
     32 H          10.7140   13.9332   23.7962 H       1  LIG1        0.0618
     33 C           9.5540   12.3078   23.8459 C.ar    1  LIG1       -0.0399
     34 H           9.9877   11.8433   23.1413 H       1  LIG1        0.0636
     35 C           5.7440   10.2952   20.6276 C.ar    1  LIG1       -0.0614
     36 H           4.8167   10.1547   20.4788 H       1  LIG1        0.0618
     37 C           6.3170    9.8411   21.7787 C.ar    1  LIG1       -0.0559
     38 H           5.7795    9.4128   22.4348 H       1  LIG1        0.0621
     39 C           9.7811    9.2923   23.3128 C.ar    1  LIG1       -0.0148
     40 C          10.3952    8.7224   22.2268 C.ar    1  LIG1       -0.0559
     41 H           9.8952    8.5434   21.4381 H       1  LIG1        0.0621
     42 C          11.7329    8.4077   22.2739 C.ar    1  LIG1       -0.0614
     43 H          12.1432    8.0063   21.5185 H       1  LIG1        0.0618
     44 C          12.4722    8.6557   23.3711 C.ar    1  LIG1       -0.0617
     45 H          13.3976    8.4416   23.3826 H       1  LIG1        0.0618
     46 C          11.8843    9.2163   24.4551 C.ar    1  LIG1       -0.0614
     47 H          12.3993    9.4035   25.2294 H       1  LIG1        0.0618
     48 C          10.5457    9.5111   24.4350 C.ar    1  LIG1       -0.0559
     49 H          10.1382    9.8751   25.2122 H       1  LIG1        0.0621
     50 C           7.7677    8.0870   23.6997 C.ar    1  LIG1       -0.0148
     51 C           7.3704    7.1965   22.7343 C.ar    1  LIG1       -0.0559
     52 H           7.3181    7.4786   21.8287 H       1  LIG1        0.0621
     53 C           7.0498    5.9164   23.0580 C.ar    1  LIG1       -0.0614
     54 H           6.7722    5.3149   22.3773 H       1  LIG1        0.0618
     55 C           7.1255    5.4858   24.3534 C.ar    1  LIG1       -0.0617
     56 H           6.8722    4.5976   24.5774 H       1  LIG1        0.0618
     57 C           7.5639    6.3376   25.3156 C.ar    1  LIG1       -0.0614
     58 H           7.6471    6.0322   26.2117 H       1  LIG1        0.0618
     59 C           7.8911    7.6471   25.0022 C.ar    1  LIG1       -0.0559
     60 H           8.1995    8.2380   25.6803 H       1  LIG1        0.0621
     61 O           5.8337    9.6048   25.0074 O.2     1  LIG1       -0.2727
     62 C           5.2514   12.4050   25.6059 C.3     1  LIG1        0.0059
     63 H           4.5326   11.7274   25.7665 H       1  LIG1        0.0366
     64 C           4.9494   13.5634   26.4415 C.3     1  LIG1       -0.0565
     65 H           5.7795   14.0397   26.6511 H       1  LIG1        0.0236
     66 H           4.5260   13.2639   27.2744 H       1  LIG1        0.0236
     67 H           4.3400   14.1626   25.9647 H       1  LIG1        0.0236
     68 C           5.1813   12.7853   24.1782 C.2     1  LIG1       -0.0857
     69 H           5.8374   13.4090   23.8910 H       1  LIG1        0.0570
     70 C           7.6004   12.6870   29.8364 C.3     1  LIG1       -0.0484
     71 H           6.9760   13.0451   29.1729 H       1  LIG1        0.0244
     72 H           8.4968   13.0451   29.6698 H       1  LIG1        0.0244
     73 H           7.3069   12.9491   30.7354 H       1  LIG1        0.0244
     74 O           3.6586   10.5561   28.1160 O.3     1  LIG1       -0.3982
     75 H           3.5959    9.9745   28.7191 H       1  LIG1        0.2090
     76 C           2.4556   11.1236   27.9120 C.3     1  LIG1        0.0330
     77 H           2.2396   11.7099   28.6674 H       1  LIG1        0.0521
     78 H           1.7732   10.4250   27.8374 H       1  LIG1        0.0521
     79 H           2.4780   11.6490   27.0848 H       1  LIG1        0.0521
     80 C           4.3736   12.3968   23.2878 C.2     1  LIG1       -0.1023
     81 H           3.6913   11.7719   23.5061 H       1  LIG1        0.0532
     82 H           4.4484   12.7291   22.4003 H       1  LIG1        0.0532
@<TRIPOS>BOND
     1     6     5    1
     2     8     7    1
     3     5     7   ar
     4     5    35   ar
     5     7     9   ar
     6    36    35    1
     7    35    37   ar
     8     9    10    1
     9     9    11   ar
    10    41    40    1
    11    43    42    1
    12    37    11   ar
    13    37    38    1
    14    52    51    1
    15    11    12    1
    16    40    42   ar
    17    40    39   ar
    18    42    44   ar
    19    54    53    1
    20    82    80    1
    21    51    53   ar
    22    51    50   ar
    23    53    55   ar
    24    34    33    1
    25    80    81    1
    26    80    68    2
    27    39    12    1
    28    39    48   ar
    29    12    50    1
    30    12     2    1
    31    44    45    1
    32    44    46   ar
    33    50    59   ar
    34    32    31    1
    35    33    31   ar
    36    33    25   ar
    37    69    68    1
    38    68    62    1
    39    31    29   ar
    40     2    25    1
    41     2    13   am
    42    55    56    1
    43    55    57   ar
    44    48    46   ar
    45    48    49    1
    46    46    47    1
    47    25    26   ar
    48    59    57   ar
    49    59    60    1
    50    61    13    2
    51    13    14    1
    52    29    30    1
    53    29    27   ar
    54    57    58    1
    55    26    27   ar
    56    26    14    1
    57    62    63    1
    58    62    14    1
    59    62    64    1
    60    27    28    1
    61    14     3    1
    62    67    64    1
    63    64    65    1
    64    64    66    1
    65    79    76    1
    66     3     4    1
    67     3     1    1
    68    78    76    1
    69    24     1    1
    70    76    74    1
    71    76    77    1
    72     1    15    1
    73    74    75    1
    74    71    70    1
    75    72    70    1
    76    15    70    1
    77    15    20    1
    78    15    16    1
    79    70    73    1
    80    23    20    1
    81    22    20    1
    82    19    16    1
    83    20    21    1
    84    17    16    1
    85    16    18    1
