@<TRIPOS>MOLECULE
273K
 26 24 0 0 0
SMALL
GASTEIGER

@<TRIPOS>ATOM
      1 I           2.6301    7.6541    0.7535 I       1  LIG1       -0.0891
      2 O           0.6988    8.0094    6.6838 O.3     1  LIG1       -0.3752
      3 O          -0.9250    8.1268    4.3024 O.3     1  LIG1       -0.3752
      4 O          -3.4460    9.4972    4.4773 O.3     1  LIG1       -0.3752
      5 C          -1.4607    8.9381    3.3015 C.3     1  LIG1        0.0711
      6 H          -1.1196    8.6642    2.4365 H       1  LIG1        0.0583
      7 H          -1.2041    9.8616    3.4521 H       1  LIG1        0.0583
      8 C           0.4921    8.1625    4.3487 C.3     1  LIG1        0.0711
      9 H           0.7939    9.0790    4.4486 H       1  LIG1        0.0583
     10 H           0.8560    7.8138    3.5192 H       1  LIG1        0.0583
     11 C           0.9757    7.3547    5.4806 C.3     1  LIG1        0.0711
     12 H           0.5406    6.4877    5.4738 H       1  LIG1        0.0583
     13 H           1.9317    7.2147    5.3985 H       1  LIG1        0.0583
     14 C          -4.8364    9.4007    4.6197 C.3     1  LIG1        0.0711
     15 H          -5.0979    8.4677    4.6690 H       1  LIG1        0.0583
     16 H          -5.2745    9.7998    3.8518 H       1  LIG1        0.0583
     17 C          -2.9386    8.8138    3.3248 C.3     1  LIG1        0.0711
     18 H          -3.3157    9.2016    2.5199 H       1  LIG1        0.0583
     19 H          -3.1910    7.8781    3.3590 H       1  LIG1        0.0583
     20 C           1.1289    7.2860    7.8309 C.3     1  LIG1        0.0711
     21 H           2.0942    7.1955    7.8144 H       1  LIG1        0.0583
     22 H           0.7417    6.3973    7.8185 H       1  LIG1        0.0583
     23 C           3.9421    6.2129   -0.0725 C.3     1  LIG1       -0.0120
     24 H           4.3066    6.5460   -0.8952 H       1  LIG1        0.0337
     25 H           3.4586    5.4008   -0.2409 H       1  LIG1        0.0337
     26 H           4.6554    6.0382    0.5461 H       1  LIG1        0.0337
@<TRIPOS>BOND
     1    24    23    1
     2    25    23    1
     3    23    26    1
     4    23     1    1
     5     6     5    1
     6    18    17    1
     7     5    17    1
     8     5     7    1
     9     5     3    1
    10    17    19    1
    11    17     4    1
    12    10     8    1
    13    16    14    1
    14     3     8    1
    15     8     9    1
    16     8    11    1
    17     4    14    1
    18    14    15    1
    19    13    11    1
    20    12    11    1
    21    11     2    1
    22     2    20    1
    23    21    20    1
    24    22    20    1
