@<TRIPOS>MOLECULE
?
 92 98 0 0 0
SMALL
GASTEIGER

@<TRIPOS>ATOM
      1 O           3.0649    2.3443    7.1537 O.2     1  LIG1       -0.2696
      2 N           8.7432    7.0168    3.2602 N.am    2  LIG2       -0.2672
      3 O           6.5571    6.9252    2.6522 O.2     2  LIG2       -0.2696
      4 N           3.7141    2.4442    9.3328 N.am    1  LIG1       -0.2672
      5 C           2.8270    4.4577    8.1964 C.ar    1  LIG1        0.0372
      6 C           5.2016    4.2181   10.1526 C.ar    1  LIG1       -0.0403
      7 H           5.4914    4.3743    9.2616 H       1  LIG1        0.0636
      8 C           9.7032    8.7916    4.6823 C.ar    2  LIG2       -0.0403
      9 H           8.8428    8.9492    5.0524 H       2  LIG2        0.0636
     10 C           4.2625    3.2237   10.4055 C.ar    1  LIG1        0.0366
     11 C           8.4663   10.8771    1.1308 C.ar    2  LIG2       -0.0610
     12 H           9.1292   11.2336    0.5509 H       2  LIG2        0.0618
     13 C           7.5937    7.5856    2.8077 C.2     2  LIG2        0.2508
     14 C           9.8760    7.7961    3.7165 C.ar    2  LIG2        0.0366
     15 C           3.0194    5.2116    7.0422 C.ar    1  LIG1       -0.0496
     16 H           3.4907    4.8380    6.3078 H       1  LIG1        0.0625
     17 C           5.7177    4.9842   11.1821 C.ar    1  LIG1       -0.0600
     18 H           6.3431    5.6746   10.9948 H       1  LIG1        0.0618
     19 C           3.8810    2.9748   11.7264 C.ar    1  LIG1       -0.0403
     20 H           3.2572    2.2836   11.9185 H       1  LIG1        0.0636
     21 C           1.7917    7.0394    8.0016 C.ar    1  LIG1       -0.0617
     22 H           1.4390    7.9190    7.9304 H       1  LIG1        0.0618
     23 C           5.2238    0.4250    9.2925 C.3     1  LIG1       -0.0217
     24 H           5.8115    0.8651    9.9727 H       1  LIG1        0.0319
     25 C          11.1411    7.5438    3.2040 C.ar    2  LIG2       -0.0403
     26 H          11.2667    6.8630    2.5529 H       2  LIG2        0.0636
     27 C           2.0929    5.0073    9.2485 C.ar    1  LIG1       -0.0496
     28 H           1.9485    4.5009   10.0392 H       1  LIG1        0.0625
     29 C           7.4117   -1.2313    8.3576 C.3     1  LIG1       -0.0499
     30 H           7.9669   -1.7171    7.6971 H       1  LIG1        0.0268
     31 H           7.7731   -1.3928    9.2654 H       1  LIG1        0.0268
     32 C           6.4214   11.1361    2.3552 C.ar    2  LIG2       -0.0610
     33 H           5.6907   11.6780    2.6288 H       2  LIG2        0.0618
     34 C           6.5062    9.8200    2.7824 C.ar    2  LIG2       -0.0496
     35 H           5.8214    9.4550    3.3314 H       2  LIG2        0.0625
     36 C           7.5950    9.0299    2.4086 C.ar    2  LIG2        0.0372
     37 C           5.2402   -1.1140    9.5118 C.3     1  LIG1       -0.0457
     38 H           5.7419   -1.3496   10.3324 H       1  LIG1        0.0271
     39 H           4.3204   -1.4716    9.5839 H       1  LIG1        0.0271
     40 C          10.7848    9.5472    5.1011 C.ar    2  LIG2       -0.0600
     41 H          10.6626   10.2363    5.7438 H       2  LIG2        0.0618
     42 C           3.8108    0.9740    9.4143 C.3     1  LIG1        0.0232
     43 H           3.2553    0.5800    8.6958 H       1  LIG1        0.0471
     44 H           3.4306    0.6802   10.2809 H       1  LIG1        0.0471
     45 C           5.3189    4.7406   12.4937 C.ar    1  LIG1       -0.0616
     46 H           5.6686    5.2646   13.2048 H       1  LIG1        0.0618
     47 C           8.7111    5.1937    4.9596 C.3     2  LIG2       -0.0217
     48 H           9.4703    5.6209    5.4505 H       2  LIG2        0.0319
     49 C           7.4018   11.6622    1.5289 C.ar    2  LIG2       -0.0617
     50 H           7.3418   12.5649    1.2357 H       2  LIG2        0.0618
     51 C           3.2396    3.0111    8.1758 C.2     1  LIG1        0.2508
     52 C           7.3626    0.2869    8.0381 C.3     1  LIG1       -0.0496
     53 H           7.7540    0.8201    8.7754 H       1  LIG1        0.0268
     54 H           7.8471    0.4909    7.1996 H       1  LIG1        0.0268
     55 C           4.4108    3.7314   12.7542 C.ar    1  LIG1       -0.0600
     56 H           4.1488    3.5555   13.6507 H       1  LIG1        0.0618
     57 C           8.5694    9.5635    1.5795 C.ar    2  LIG2       -0.0496
     58 H           9.3104    9.0304    1.3172 H       2  LIG2        0.0625
     59 C           8.7282    3.6833    5.2229 C.3     2  LIG2       -0.0365
     60 H           9.2807    3.1445    4.5868 H       2  LIG2        0.0304
     61 C          12.2209    8.2935    3.6490 C.ar    2  LIG2       -0.0600
     62 H          13.0893    8.1131    3.3080 H       2  LIG2        0.0618
     63 C           8.8024    5.5628    3.4804 C.3     2  LIG2        0.0232
     64 H           9.6516    5.2126    3.1113 H       2  LIG2        0.0471
     65 H           8.0585    5.1300    2.9923 H       2  LIG2        0.0471
     66 C           1.5714    6.2900    9.1454 C.ar    1  LIG1       -0.0610
     67 H           1.0633    6.6546    9.8612 H       1  LIG1        0.0618
     68 C           5.8666    0.5622    7.8929 C.3     1  LIG1       -0.0365
     69 H           5.6448    1.4125    7.4142 H       1  LIG1        0.0304
     70 C          12.0498    9.2966    4.5821 C.ar    2  LIG2       -0.0616
     71 H          12.7938    9.8144    4.8688 H       2  LIG2        0.0618
     72 C           2.5301    6.4986    6.9589 C.ar    1  LIG1       -0.0610
     73 H           2.7004    7.0186    6.1822 H       1  LIG1        0.0618
     74 C           5.3929   -0.7082    7.1874 C.3     1  LIG1       -0.0471
     75 H           5.8205   -0.8397    6.3040 H       1  LIG1        0.0271
     76 H           4.4072   -0.7550    7.1013 H       1  LIG1        0.0271
     77 C           6.8909    4.3398    6.2825 C.3     2  LIG2       -0.0405
     78 H           5.9204    4.3570    6.5251 H       2  LIG2        0.0301
     79 C           7.8061    3.9793    7.4273 C.3     2  LIG2       -0.0499
     80 H           7.4154    3.2635    7.9875 H       2  LIG2        0.0268
     81 H           7.9994    4.7682    7.9941 H       2  LIG2        0.0268
     82 C           9.0650    3.4936    6.7031 C.3     2  LIG2       -0.0496
     83 H           9.8526    4.0351    6.9598 H       2  LIG2        0.0268
     84 H           9.2465    2.5413    6.9073 H       2  LIG2        0.0268
     85 C           5.9433   -1.6578    8.2648 C.3     1  LIG1       -0.0405
     86 H           5.7959   -2.6312    8.0859 H       1  LIG1        0.0301
     87 C           7.3912    5.6198    5.6107 C.3     2  LIG2       -0.0457
     88 H           7.5387    6.3369    6.2768 H       2  LIG2        0.0271
     89 H           6.7463    5.9386    4.9306 H       2  LIG2        0.0271
     90 C           7.2372    3.3486    5.2360 C.3     2  LIG2       -0.0471
     91 H           6.7954    3.5367    4.3704 H       2  LIG2        0.0271
     92 H           7.0562    2.4164    5.5161 H       2  LIG2        0.0271
@<TRIPOS>BOND
     1    12    11    1
     2    11    49   ar
     3    11    57   ar
     4    50    49    1
     5    58    57    1
     6    49    32   ar
     7    57    36   ar
     8    32    33    1
     9    32    34   ar
    10    36    34   ar
    11    36    13    1
    12    26    25    1
    13     3    13    2
    14    34    35    1
    15    13     2   am
    16    65    63    1
    17    64    63    1
    18    25    61   ar
    19    25    14   ar
    20     2    63    1
    21     2    14    1
    22    62    61    1
    23    63    47    1
    24    61    70   ar
    25    14     8   ar
    26    91    90    1
    27    70    71    1
    28    70    40   ar
    29    60    59    1
    30     8     9    1
    31     8    40   ar
    32    89    87    1
    33    47    59    1
    34    47    48    1
    35    47    87    1
    36    40    41    1
    37    59    90    1
    38    59    82    1
    39    90    92    1
    40    90    77    1
    41    87    88    1
    42    87    77    1
    43    73    72    1
    44    77    78    1
    45    77    79    1
    46    75    74    1
    47    16    15    1
    48    82    84    1
    49    82    83    1
    50    82    79    1
    51    72    15   ar
    52    72    21   ar
    53    15     5   ar
    54    76    74    1
    55     1    51    2
    56    74    68    1
    57    74    85    1
    58    54    52    1
    59    69    68    1
    60    79    80    1
    61    79    81    1
    62    30    29    1
    63    68    52    1
    64    68    23    1
    65    22    21    1
    66    21    66   ar
    67    52    29    1
    68    52    53    1
    69    86    85    1
    70    51     5    1
    71    51     4   am
    72     5    27   ar
    73    85    29    1
    74    85    37    1
    75    29    31    1
    76    43    42    1
    77    66    27   ar
    78    66    67    1
    79    27    28    1
    80     7     6    1
    81    23    42    1
    82    23    37    1
    83    23    24    1
    84     4    42    1
    85     4    10    1
    86    42    44    1
    87    37    39    1
    88    37    38    1
    89     6    10   ar
    90     6    17   ar
    91    10    19   ar
    92    18    17    1
    93    17    45   ar
    94    19    20    1
    95    19    55   ar
    96    45    55   ar
    97    45    46    1
    98    55    56    1
