@<TRIPOS>MOLECULE
C16 H25 N O2
 44 44 0 0 0
SMALL
GASTEIGER

@<TRIPOS>ATOM
      1 C           2.0729    7.5885    5.2119 C.3     1  LIG1        0.0630
      2 N           1.1391    6.8295    5.6979 N.4     1  LIG1       -0.1438
      3 C           1.4391    5.5467    6.4479 C.3     1  LIG1        0.0419
      4 O          -0.1245    7.0381    5.4809 O.3     1  LIG1       -0.1185
      5 C           0.9965    4.4356    5.4981 C.3     1  LIG1       -0.0448
      6 H           0.0448    4.5430    5.2909 H       1  LIG1        0.0248
      7 H           1.1421    3.5644    5.9242 H       1  LIG1        0.0248
      8 H           1.5185    4.4864    4.6702 H       1  LIG1        0.0248
      9 C           2.9150    5.4065    6.7806 C.3     1  LIG1       -0.0448
     10 H           3.4368    5.3917    5.9511 H       1  LIG1        0.0248
     11 H           3.0608    4.5719    7.2730 H       1  LIG1        0.0248
     12 H           3.1992    6.1658    7.3314 H       1  LIG1        0.0248
     13 C           0.6135    5.5590    7.7280 C.3     1  LIG1       -0.0448
     14 H           0.9009    6.3044    8.2949 H       1  LIG1        0.0248
     15 H           0.7428    4.7147    8.2080 H       1  LIG1        0.0248
     16 H          -0.3348    5.6658    7.5036 H       1  LIG1        0.0248
     17 C           1.7300    8.7074    4.2844 C.3     1  LIG1        0.0086
     18 H           0.8188    8.5114    3.9216 H       1  LIG1        0.0346
     19 C           2.7018    8.7176    3.0731 C.3     1  LIG1        0.0953
     20 C           2.7770    7.2797    2.5434 C.ar    1  LIG1       -0.0158
     21 C           1.6789    6.7377    1.8700 C.ar    1  LIG1       -0.0558
     22 H           0.9396    7.2942    1.6536 H       1  LIG1        0.0621
     23 C           1.6559    5.3965    1.5129 C.ar    1  LIG1       -0.0614
     24 H           0.9014    5.0437    1.0550 H       1  LIG1        0.0618
     25 C           2.7241    4.5669    1.8179 C.ar    1  LIG1       -0.0617
     26 H           2.6993    3.6459    1.5857 H       1  LIG1        0.0618
     27 C           3.8255    5.0948    2.4643 C.ar    1  LIG1       -0.0614
     28 H           4.5680    4.5365    2.6644 H       1  LIG1        0.0618
     29 C           3.8549    6.4406    2.8247 C.ar    1  LIG1       -0.0558
     30 H           4.6188    6.7906    3.2677 H       1  LIG1        0.0621
     31 O           2.0219    9.5688    2.1326 O.3     1  LIG1       -0.3719
     32 C           2.7163    9.8003    0.9168 C.3     1  LIG1        0.0376
     33 H           3.5441   10.2915    1.1024 H       1  LIG1        0.0524
     34 H           2.1522   10.3270    0.3127 H       1  LIG1        0.0524
     35 H           2.9332    8.9423    0.4959 H       1  LIG1        0.0524
     36 C           1.6298   10.0402    5.0331 C.3     1  LIG1       -0.0579
     37 H           0.8994    9.9946    5.6842 H       1  LIG1        0.0234
     38 H           1.4531   10.7614    4.3938 H       1  LIG1        0.0234
     39 H           2.4732   10.2168    5.4994 H       1  LIG1        0.0234
     40 C           4.0643    9.2968    3.4315 C.3     1  LIG1       -0.0313
     41 H           4.6853    9.1559    2.6865 H       1  LIG1        0.0261
     42 H           4.4089    8.8502    4.2327 H       1  LIG1        0.0261
     43 H           3.9754   10.2575    3.6057 H       1  LIG1        0.0261
     44 H           2.9812    7.3668    5.4457 H       1  LIG1        0.0507
@<TRIPOS>BOND
     1    34    32    1
     2    35    32    1
     3    32    33    1
     4    32    31    1
     5    24    23    1
     6    23    25   ar
     7    23    21   ar
     8    26    25    1
     9    22    21    1
    10    25    27   ar
    11    21    20   ar
    12    31    19    1
    13    27    28    1
    14    27    29   ar
    15    20    29   ar
    16    20    19    1
    17    41    40    1
    18    29    30    1
    19    19    40    1
    20    19    17    1
    21    40    43    1
    22    40    42    1
    23    18    17    1
    24    17    36    1
    25    17     1    1
    26    38    36    1
    27     8     5    1
    28    36    39    1
    29    36    37    1
    30     1    44    1
    31     1     2    1
    32     6     5    1
    33     4     2    1
    34     5     7    1
    35     5     3    1
    36     2     3    1
    37    10     9    1
    38     3     9    1
    39     3    13    1
    40     9    11    1
    41     9    12    1
    42    16    13    1
    43    13    15    1
    44    13    14    1
