@<TRIPOS>MOLECULE
?
 35 35 0 0 0
SMALL
GASTEIGER

@<TRIPOS>ATOM
      1 S           8.1524    5.9581    2.5896 S.O2    1  LIG1        0.0610
      2 O           5.5049    9.9467    4.1671 O.2     1  LIG1       -0.2738
      3 O           8.9959    6.4748    1.5573 O.2     1  LIG1       -0.1530
      4 O           7.5729    4.6551    2.4121 O.2     1  LIG1       -0.1530
      5 N           5.8939    7.9560    5.1232 N.am    1  LIG1       -0.3168
      6 H           6.2637    7.1827    5.0542 H       1  LIG1        0.1484
      7 N           7.2196    4.9766    5.3203 N.pl3   1  LIG1       -0.3565
      8 H           6.8800    4.7371    6.0733 H       1  LIG1        0.1424
      9 H           6.7585    4.9044    4.5985 H       1  LIG1        0.1424
     10 N           6.8929    6.9148    2.8711 N.3     1  LIG1       -0.1755
     11 H           6.1493    6.5109    3.0228 H       1  LIG1        0.1492
     12 C           5.9935    8.8153    4.1256 C.2     1  LIG1        0.2340
     13 C           6.8325    8.3914    2.9066 C.3     1  LIG1        0.1100
     14 C           9.0785    5.9587    4.0828 C.ar    1  LIG1        0.1258
     15 C          10.3594    6.5062    4.0748 C.ar    1  LIG1       -0.0335
     16 H          10.7329    6.7980    3.2742 H       1  LIG1        0.0638
     17 C          11.0739    6.6168    5.2420 C.ar    1  LIG1       -0.0598
     18 H          11.9220    6.9962    5.2406 H       1  LIG1        0.0618
     19 C          10.5171    6.1584    6.4172 C.ar    1  LIG1       -0.0599
     20 H          10.9993    6.2306    7.2084 H       1  LIG1        0.0618
     21 C           9.2612    5.5971    6.4401 C.ar    1  LIG1       -0.0391
     22 H           8.9098    5.2930    7.2457 H       1  LIG1        0.0636
     23 C           8.5049    5.4765    5.2713 C.ar    1  LIG1        0.0512
     24 C           5.1697    8.2946    6.3333 C.3     1  LIG1        0.0001
     25 H           5.5176    9.1124    6.6961 H       1  LIG1        0.0426
     26 H           5.2735    7.5897    6.9764 H       1  LIG1        0.0426
     27 H           4.2381    8.4068    6.1285 H       1  LIG1        0.0426
     28 C           8.2034    9.0372    3.1010 C.3     1  LIG1       -0.0370
     29 H           8.6052    8.6993    3.9053 H       1  LIG1        0.0253
     30 H           8.1018    9.9894    3.1692 H       1  LIG1        0.0253
     31 H           8.7653    8.8283    2.3503 H       1  LIG1        0.0253
     32 C           6.1723    8.8928    1.6314 C.3     1  LIG1       -0.0370
     33 H           6.7128    8.6532    0.8755 H       1  LIG1        0.0253
     34 H           6.0834    9.8481    1.6709 H       1  LIG1        0.0253
     35 H           5.3037    8.4943    1.5425 H       1  LIG1        0.0253
@<TRIPOS>BOND
     1    33    32    1
     2    35    32    1
     3     3     1    2
     4    32    34    1
     5    32    13    1
     6    31    28    1
     7     4     1    2
     8     1    10    1
     9     1    14    1
    10    10    13    1
    11    10    11    1
    12    13    28    1
    13    13    12    1
    14    28    30    1
    15    28    29    1
    16    16    15    1
    17    15    14   ar
    18    15    17   ar
    19    14    23   ar
    20    12     2    2
    21    12     5   am
    22     9     7    1
    23     6     5    1
    24     5    24    1
    25    18    17    1
    26    17    19   ar
    27    23     7    1
    28    23    21   ar
    29     7     8    1
    30    27    24    1
    31    24    25    1
    32    24    26    1
    33    19    21   ar
    34    19    20    1
    35    21    22    1
