@<TRIPOS>MOLECULE
7113765.cif
 142 146 0 0 0
SMALL
GASTEIGER

@<TRIPOS>ATOM
      1 O           3.2219   16.7928    3.4981 O.2     1  LIG1       -0.2735
      2 N           2.1862   17.4218    5.4317 N.am    1  LIG1       -0.2813
      3 C           2.5495   17.6156    4.1396 C.2     1  LIG1        0.2373
      4 C           2.0627   18.8694    3.3902 C.3     1  LIG1        0.1056
      5 H           2.1046   19.6665    3.9581 H       1  LIG1        0.0598
      6 N           2.8467   19.0387    2.1645 N.am    1  LIG1       -0.2559
      7 C           2.2343   18.3941    0.9992 C.3     1  LIG1        0.0187
      8 H           2.7857   17.6660    0.6734 H       1  LIG1        0.0466
      9 H           2.0938   19.0310    0.2813 H       1  LIG1        0.0466
     10 C           0.9065   17.8779    1.5403 C.3     1  LIG1       -0.0349
     11 H           0.1942   18.0297    0.9012 H       1  LIG1        0.0281
     12 H           0.9601   16.9281    1.7276 H       1  LIG1        0.0281
     13 C           0.6598   18.6608    2.8139 C.3     1  LIG1       -0.0242
     14 H           0.1028   18.1572    3.4279 H       1  LIG1        0.0288
     15 H           0.2326   19.5097    2.6226 H       1  LIG1        0.0288
     16 C           4.1383   19.4108    2.2508 C.2     1  LIG1        0.4038
     17 O           4.6700   19.8065    3.2708 O.2     1  LIG1       -0.2262
     18 O           4.7506   19.3270    1.0367 O.3     1  LIG1       -0.4461
     19 C           6.1588   19.6636    1.0281 C.3     1  LIG1        0.1124
     20 H           6.3061   20.4378    1.5932 H       1  LIG1        0.0743
     21 H           6.4266   19.8964    0.1257 H       1  LIG1        0.0743
     22 C           6.9944   18.5364    1.5135 C.2     1  LIG1       -0.0477
     23 H           7.9077   18.6965    1.5957 H       1  LIG1        0.0603
     24 C           6.5759   17.3409    1.8372 C.2     1  LIG1       -0.0478
     25 H           5.6695   17.1601    1.7388 H       1  LIG1        0.0603
     26 C           7.4457   16.2520    2.3512 C.3     1  LIG1        0.1109
     27 H           7.5020   15.5379    1.6978 H       1  LIG1        0.0743
     28 H           8.3404   16.5915    2.5093 H       1  LIG1        0.0743
     29 O           6.8801   15.7405    3.5998 O.3     1  LIG1       -0.4594
     30 O           7.8290   17.4358    4.6838 O.2     1  LIG1       -0.2491
     31 C           7.0998   16.4910    4.6775 C.2     1  LIG1        0.3247
     32 C           6.3024   16.0125    5.8712 C.3     1  LIG1        0.1090
     33 H           6.5503   15.0990    6.0840 H       1  LIG1        0.0577
     34 H           6.5045   16.5664    6.6404 H       1  LIG1        0.0577
     35 N           4.8820   16.0764    5.5840 N.am    1  LIG1       -0.3033
     36 H           4.6229   16.1546    4.7671 H       1  LIG1        0.1493
     37 C           3.9537   16.0162    6.5668 C.2     1  LIG1        0.2343
     38 O           4.2497   15.8333    7.7365 O.2     1  LIG1       -0.2738
     39 C           2.4954   16.1352    6.1186 C.3     1  LIG1        0.1051
     40 H           1.9735   16.1546    6.9478 H       1  LIG1        0.0599
     41 C           2.0138   14.8734    5.3696 C.3     1  LIG1       -0.0195
     42 H           2.5620   14.7582    4.5655 H       1  LIG1        0.0318
     43 C           0.5621   14.9773    4.9563 C.3     1  LIG1       -0.0605
     44 H           0.4455   15.7407    4.3863 H       1  LIG1        0.0233
     45 H           0.0129   15.0760    5.7380 H       1  LIG1        0.0233
     46 H           0.3064   14.1813    4.4834 H       1  LIG1        0.0233
     47 C           2.2010   13.6511    6.2695 C.3     1  LIG1       -0.0605
     48 H           3.1237   13.5813    6.5271 H       1  LIG1        0.0233
     49 H           1.9404   12.8601    5.7928 H       1  LIG1        0.0233
     50 H           1.6567   13.7465    7.0549 H       1  LIG1        0.0233
     51 C           1.5732   18.4812    6.2943 C.3     1  LIG1        0.0493
     52 H           1.5129   19.2923    5.7480 H       1  LIG1        0.0548
     53 C           0.1451   18.1363    6.7350 C.3     1  LIG1       -0.0422
     54 H          -0.3911   17.9482    5.9620 H       1  LIG1        0.0251
     55 H          -0.2306   18.8805    7.2130 H       1  LIG1        0.0251
     56 H           0.1644   17.3650    7.3075 H       1  LIG1        0.0251
     57 C           2.5169   18.7952    7.4438 C.ar    1  LIG1       -0.0238
     58 C           3.7721   19.3180    7.1014 C.ar    1  LIG1       -0.0150
     59 H           3.9898   19.4679    6.2097 H       1  LIG1        0.0657
     60 C           4.6804   19.6092    8.0962 C.ar    1  LIG1        0.1204
     61 C           4.3519   19.3995    9.4322 C.ar    1  LIG1       -0.0199
     62 H           4.9647   19.6080   10.1006 H       1  LIG1        0.0654
     63 C           3.1317   18.8901    9.7624 C.ar    1  LIG1       -0.0580
     64 H           2.9220   18.7404   10.6558 H       1  LIG1        0.0619
     65 C           2.1994   18.5918    8.7823 C.ar    1  LIG1       -0.0566
     66 H           1.3643   18.2576    9.0190 H       1  LIG1        0.0621
     67 O           5.9306   20.1220    7.8604 O.3     1  LIG1       -0.4951
     68 C           6.3416   20.2740    6.4973 C.3     1  LIG1        0.0788
     69 H           7.2294   20.6364    6.4686 H       1  LIG1        0.0660
     70 H           5.7385   20.8685    6.0454 H       1  LIG1        0.0660
     71 H           6.3325   19.4177    6.0629 H       1  LIG1        0.0660
     72 N           7.7425   13.4064   -1.9391 N.am    2  LIG2       -0.2813
     73 C           8.0544   13.0905   -0.6587 C.2     2  LIG2        0.2373
     74 O           8.6719   13.8623    0.0813 O.2     2  LIG2       -0.2735
     75 C           7.5911   11.7510   -0.0706 C.3     2  LIG2        0.1056
     76 H           7.6501   11.0373   -0.7381 H       2  LIG2        0.0598
     77 N           8.3646   11.4211    1.1091 N.am    2  LIG2       -0.2559
     78 C           7.7362   11.8603    2.3584 C.3     2  LIG2        0.0187
     79 H           8.2623   12.5529    2.7869 H       2  LIG2        0.0466
     80 H           7.6310   11.1167    2.9736 H       2  LIG2        0.0466
     81 C           6.3898   12.3950    1.9220 C.3     2  LIG2       -0.0349
     82 H           6.3955   13.3639    1.9069 H       2  LIG2        0.0281
     83 H           5.6905   12.0951    2.5230 H       2  LIG2        0.0281
     84 C           6.1721   11.8350    0.5207 C.3     2  LIG2       -0.0242
     85 H           5.6118   12.4253   -0.0062 H       2  LIG2        0.0288
     86 H           5.7591   10.9579    0.5576 H       2  LIG2        0.0288
     87 C           9.6241   10.9744    0.9704 C.2     2  LIG2        0.4038
     88 O          10.1666   10.6999   -0.0900 O.2     2  LIG2       -0.2262
     89 O          10.2004   10.8571    2.1949 O.3     2  LIG2       -0.4461
     90 C          11.6126   10.5860    2.1682 C.3     2  LIG2        0.1124
     91 H          11.7981    9.9315    1.4774 H       2  LIG2        0.0743
     92 H          11.8799   10.2053    3.0196 H       2  LIG2        0.0743
     93 C          12.4092   11.8028    1.9093 C.2     2  LIG2       -0.0477
     94 H          13.3292   11.6874    1.8384 H       2  LIG2        0.0603
     95 C          11.9676   13.0219    1.7687 C.2     2  LIG2       -0.0478
     96 H          11.0567   13.1674    1.8857 H       2  LIG2        0.0603
     97 C          12.8140   14.1907    1.4364 C.3     2  LIG2        0.1109
     98 H          12.8117   14.8168    2.1770 H       2  LIG2        0.0743
     99 H          13.7284   13.9012    1.2870 H       2  LIG2        0.0743
    100 O          12.3022   14.8489    0.2303 O.3     2  LIG2       -0.4594
    101 C          12.5977   14.2831   -0.9348 C.2     2  LIG2        0.3247
    102 O          13.3367   13.3393   -1.0607 O.2     2  LIG2       -0.2491
    103 C          11.8674   14.9380   -2.0624 C.3     2  LIG2        0.1090
    104 H          12.0918   15.8808   -2.0973 H       2  LIG2        0.0577
    105 H          12.1295   14.5325   -2.9039 H       2  LIG2        0.0577
    106 N          10.4345   14.7785   -1.8622 N.am    2  LIG2       -0.3033
    107 H          10.1370   14.6014   -1.0754 H       2  LIG2        0.1493
    108 C           9.5722   14.9018   -2.8765 C.2     2  LIG2        0.2343
    109 O           9.9280   15.1811   -4.0162 O.2     2  LIG2       -0.2738
    110 C           8.0792   14.7388   -2.5169 C.3     2  LIG2        0.1051
    111 H           7.6013   14.7791   -3.3719 H       2  LIG2        0.0599
    112 C           7.5536   15.9447   -1.6953 C.3     2  LIG2       -0.0195
    113 H           8.0388   15.9748   -0.8451 H       2  LIG2        0.0318
    114 C           6.0633   15.8231   -1.3953 C.3     2  LIG2       -0.0605
    115 H           5.9024   15.0195   -0.8949 H       2  LIG2        0.0233
    116 H           5.5718   15.7909   -2.2193 H       2  LIG2        0.0233
    117 H           5.7771   16.5831   -0.8812 H       2  LIG2        0.0233
    118 C           7.8449   17.2322   -2.4645 C.3     2  LIG2       -0.0605
    119 H           8.7869   17.2918   -2.6425 H       2  LIG2        0.0233
    120 H           7.5685   17.9879   -1.9405 H       2  LIG2        0.0233
    121 H           7.3629   17.2249   -3.2947 H       2  LIG2        0.0233
    122 C           7.0770   12.4550   -2.8768 C.3     2  LIG2        0.0493
    123 H           6.9979   11.6059   -2.3948 H       2  LIG2        0.0548
    124 C           5.6688   12.8783   -3.2210 C.3     2  LIG2       -0.0422
    125 H           5.1721   13.0253   -2.4122 H       2  LIG2        0.0251
    126 H           5.2438   12.1891   -3.7365 H       2  LIG2        0.0251
    127 H           5.6944   13.6900   -3.7316 H       2  LIG2        0.0251
    128 C           7.9820   12.1837   -4.0756 C.ar    2  LIG2       -0.0238
    129 C           7.5258   12.2610   -5.3769 C.ar    2  LIG2       -0.0566
    130 H           6.6528   12.5340   -5.5426 H       2  LIG2        0.0621
    131 C           8.3527   11.9368   -6.4349 C.ar    2  LIG2       -0.0580
    132 H           8.0315   12.0073   -7.3051 H       2  LIG2        0.0619
    133 C           9.6291   11.5152   -6.2272 C.ar    2  LIG2       -0.0199
    134 H          10.1725   11.2882   -6.9466 H       2  LIG2        0.0654
    135 C          10.1137   11.4288   -4.9290 C.ar    2  LIG2        0.1204
    136 C           9.2946   11.7608   -3.8613 C.ar    2  LIG2       -0.0150
    137 H           9.6230   11.7000   -2.9935 H       2  LIG2        0.0657
    138 O          11.3966   10.9698   -4.8113 O.3     2  LIG2       -0.4951
    139 C          12.0363   11.0877   -3.5461 C.3     2  LIG2        0.0788
    140 H          12.9273   10.7363   -3.6034 H       2  LIG2        0.0660
    141 H          11.5392   10.5941   -2.8889 H       2  LIG2        0.0660
    142 H          12.0737   12.0135   -3.2909 H       2  LIG2        0.0660
@<TRIPOS>BOND
     1   132   131    1
     2   134   133    1
     3   131   133   ar
     4   131   129   ar
     5   133   135   ar
     6   130   129    1
     7   129   128   ar
     8   135   138    1
     9   135   136   ar
    10   138   139    1
    11   128   136   ar
    12   128   122    1
    13   109   108    2
    14   136   137    1
    15   126   124    1
    16   127   124    1
    17   140   139    1
    18   139   142    1
    19   139   141    1
    20   111   110    1
    21   121   118    1
    22   124   122    1
    23   124   125    1
    24   105   103    1
    25   122   123    1
    26   122    72    1
    27   108   110    1
    28   108   106   am
    29   119   118    1
    30   110    72    1
    31   110   112    1
    32   118   120    1
    33   118   112    1
    34   116   114    1
    35   104   103    1
    36   103   106    1
    37   103   101    1
    38    72    73   am
    39   106   107    1
    40   112   114    1
    41   112   113    1
    42   114   115    1
    43   114   117    1
    44   102   101    2
    45   101   100    1
    46    76    75    1
    47    73    75    1
    48    73    74    2
    49    88    87    2
    50    75    84    1
    51    75    77    1
    52    85    84    1
    53    21    19    1
    54   100    97    1
    55     9     7    1
    56    84    86    1
    57    84    81    1
    58     8     7    1
    59    11    10    1
    60    87    77   am
    61    87    89    1
    62     7    10    1
    63     7     6    1
    64    19    18    1
    65    19    22    1
    66    19    20    1
    67    18    16    1
    68    77    78    1
    69    99    97    1
    70    97    95    1
    71    97    98    1
    72    91    90    1
    73    22    23    1
    74    22    24    2
    75    10    12    1
    76    10    13    1
    77    27    26    1
    78    25    24    1
    79    95    96    1
    80    95    93    2
    81    24    26    1
    82    94    93    1
    83    82    81    1
    84    93    90    1
    85    81    78    1
    86    81    83    1
    87     6    16   am
    88     6     4    1
    89    90    89    1
    90    90    92    1
    91    16    17    2
    92    26    28    1
    93    26    29    1
    94    78    79    1
    95    78    80    1
    96    15    13    1
    97    13     4    1
    98    13    14    1
    99     4     5    1
   100     4     3    1
   101     1     3    2
   102    29    31    1
   103     3     2   am
   104    44    43    1
   105    46    43    1
   106    42    41    1
   107    31    30    2
   108    31    32    1
   109    36    35    1
   110    43    41    1
   111    43    45    1
   112    41    39    1
   113    41    47    1
   114     2    39    1
   115     2    51    1
   116    35    32    1
   117    35    37   am
   118    52    51    1
   119    49    47    1
   120    32    33    1
   121    32    34    1
   122    54    53    1
   123    70    68    1
   124    71    68    1
   125    39    37    1
   126    39    40    1
   127    59    58    1
   128    47    48    1
   129    47    50    1
   130    51    53    1
   131    51    57    1
   132    69    68    1
   133    68    67    1
   134    37    38    2
   135    53    55    1
   136    53    56    1
   137    58    57   ar
   138    58    60   ar
   139    57    65   ar
   140    67    60    1
   141    60    61   ar
   142    65    66    1
   143    65    63   ar
   144    61    63   ar
   145    61    62    1
   146    63    64    1
