@<TRIPOS>MOLECULE
C42 H62 N5 O4, C H3 O3 S
 121 125 0 0 0
SMALL
GASTEIGER

@<TRIPOS>ATOM
      1 C          11.0813   -1.3030   13.2351 C.3     1  LIG1       -0.0195
      2 H          11.9571   -1.6265   12.8755 H       1  LIG1        0.0852
      3 C          11.2518   -1.1208   14.7492 C.3     1  LIG1       -0.0091
      4 H          10.4442   -0.6959   15.1327 H       1  LIG1        0.0320
      5 H          11.3764   -2.0006   15.1850 H       1  LIG1        0.0320
      6 C          12.4683   -0.2424   14.9959 C.3     1  LIG1       -0.0420
      7 H          13.2694   -0.7102   14.6491 H       1  LIG1        0.0273
      8 H          12.5861   -0.1363   15.9735 H       1  LIG1        0.0273
      9 C          12.4033    1.1642   14.3527 C.3     1  LIG1       -0.0256
     10 C          11.3584    2.0954   15.0500 C.3     1  LIG1       -0.0289
     11 H          10.4698    1.6392   14.9883 H       1  LIG1        0.0310
     12 C          11.6495    2.3202   16.5505 C.3     1  LIG1       -0.0303
     13 H          12.5725    2.6649   16.6411 H       1  LIG1        0.0286
     14 H          11.6132    1.4442   17.0109 H       1  LIG1        0.0286
     15 C          10.6899    3.2935   17.2783 C.3     1  LIG1        0.0307
     16 H          11.0928    3.4892   18.1729 H       1  LIG1        0.0504
     17 C          10.5929    4.6381   16.5209 C.3     1  LIG1       -0.0074
     18 C           9.4462    5.6346   16.8716 C.3     1  LIG1       -0.0311
     19 H           8.5964    5.1110   16.9243 H       1  LIG1        0.0309
     20 C           9.3712    6.5262   15.5938 C.3     1  LIG1       -0.0491
     21 H           8.4304    6.7581   15.3925 H       1  LIG1        0.0268
     22 H           9.8800    7.3653   15.7299 H       1  LIG1        0.0268
     23 C           9.9803    5.7174   14.4355 C.3     1  LIG1       -0.0491
     24 H           9.3491    5.6579   13.6748 H       1  LIG1        0.0268
     25 H          10.8243    6.1288   14.1205 H       1  LIG1        0.0268
     26 C          10.2383    4.3405   15.0403 C.3     1  LIG1       -0.0289
     27 H           9.3626    3.8570   15.0443 H       1  LIG1        0.0310
     28 C          11.2276    3.4498   14.3169 C.3     1  LIG1       -0.0157
     29 H          12.1200    3.8983   14.3731 H       1  LIG1        0.0324
     30 C          10.8905    3.3036   12.8163 C.3     1  LIG1        0.0282
     31 H          11.0385    4.1979   12.3955 H       1  LIG1        0.0502
     32 C          11.8497    2.3261   12.1361 C.3     1  LIG1       -0.0306
     33 H          12.7354    2.7600   12.0545 H       1  LIG1        0.0286
     34 H          11.5196    2.1481   11.2191 H       1  LIG1        0.0286
     35 C          12.0281    0.9856   12.8573 C.3     1  LIG1       -0.0286
     36 H          12.8123    0.5390   12.4244 H       1  LIG1        0.0309
     37 C          10.8178    0.0549   12.6187 C.3     1  LIG1       -0.0062
     38 H          10.0067    0.4534   13.0234 H       1  LIG1        0.0323
     39 H          10.6614   -0.0460   11.6468 H       1  LIG1        0.0323
     40 C          10.5718   -3.7264   13.2163 C.3     1  LIG1       -0.0415
     41 H           9.9147   -4.4151   12.9837 H       1  LIG1        0.0778
     42 H          10.7639   -3.7683   14.1764 H       1  LIG1        0.0778
     43 H          11.3975   -3.8808   12.7113 H       1  LIG1        0.0778
     44 C           8.7216   -2.1568   13.6057 C.3     1  LIG1       -0.0415
     45 H           8.0714   -2.8298   13.3157 H       1  LIG1        0.0778
     46 H           8.3746   -1.2619   13.4096 H       1  LIG1        0.0778
     47 H           8.8739   -2.2432   14.5697 H       1  LIG1        0.0778
     48 C           9.7263   -2.3619   11.4010 C.3     1  LIG1       -0.0415
     49 H           9.1801   -3.1437   11.1758 H       1  LIG1        0.0778
     50 H          10.5679   -2.3970   10.9016 H       1  LIG1        0.0778
     51 H           9.2389   -1.5441   11.1650 H       1  LIG1        0.0778
     52 C          13.8249    1.7578   14.4450 C.3     1  LIG1       -0.0590
     53 H          13.8094    2.6903   14.1457 H       1  LIG1        0.0235
     54 H          14.4324    1.2413   13.8751 H       1  LIG1        0.0235
     55 H          14.1367    1.7169   15.3726 H       1  LIG1        0.0235
     56 C           9.1174    2.0978   18.7236 C.2     1  LIG1        0.3041
     57 C           7.3222    0.8068   19.8392 C.ar    1  LIG1        0.0348
     58 C           7.3022    1.5293   21.0333 C.ar    1  LIG1       -0.0404
     59 H           7.8452    2.3019   21.1320 H       1  LIG1        0.0636
     60 C           6.4873    1.1146   22.0738 C.ar    1  LIG1       -0.0600
     61 H           6.4650    1.6170   22.8803 H       1  LIG1        0.0618
     62 C           5.7075   -0.0185   21.9540 C.ar    1  LIG1       -0.0616
     63 H           5.1512   -0.2949   22.6728 H       1  LIG1        0.0618
     64 C           5.7422   -0.7407   20.7924 C.ar    1  LIG1       -0.0600
     65 H           5.2085   -1.5219   20.7098 H       1  LIG1        0.0618
     66 C           6.5498   -0.3418   19.7307 C.ar    1  LIG1       -0.0404
     67 H           6.5721   -0.8561   18.9325 H       1  LIG1        0.0636
     68 C          11.9506    5.3517   16.6667 C.3     1  LIG1       -0.0573
     69 H          12.6555    4.7971   16.2712 H       1  LIG1        0.0236
     70 H          12.1426    5.4962   17.6172 H       1  LIG1        0.0236
     71 H          11.9179    6.2160   16.2044 H       1  LIG1        0.0236
     72 C           9.5408    6.4953   18.1469 C.3     1  LIG1       -0.0400
     73 H          10.3657    7.0562   18.0773 H       1  LIG1        0.0301
     74 C           8.3315    7.4458   18.2160 C.3     1  LIG1       -0.0401
     75 H           8.2087    7.8694   17.3303 H       1  LIG1        0.0273
     76 H           7.5194    6.9135   18.4111 H       1  LIG1        0.0273
     77 C           8.4642    8.5351   19.2627 C.3     1  LIG1        0.0452
     78 H           8.3837    8.1294   20.1631 H       1  LIG1        0.0378
     79 H           9.3641    8.9411   19.1941 H       1  LIG1        0.0378
     80 C           7.4289    9.6137   19.1164 C.2     1  LIG1        0.3068
     81 C           6.7510   11.7328   19.9153 C.3     1  LIG1        0.0817
     82 H           7.0714   12.4541   20.4950 H       1  LIG1        0.0661
     83 H           5.8692   11.4364   20.2208 H       1  LIG1        0.0661
     84 H           6.6852   12.0594   18.9939 H       1  LIG1        0.0661
     85 C           9.6459    5.6692   19.4285 C.3     1  LIG1       -0.0621
     86 H           9.6357    6.2683   20.2045 H       1  LIG1        0.0233
     87 H          10.4819    5.1586   19.4197 H       1  LIG1        0.0233
     88 H           8.8860    5.0523   19.4828 H       1  LIG1        0.0233
     89 C           8.7297    3.5825   11.6590 C.2     1  LIG1        0.3041
     90 C           6.4152    3.4748   10.7298 C.ar    1  LIG1        0.0348
     91 C           5.3340    2.6051   10.5692 C.ar    1  LIG1       -0.0404
     92 H           5.3443    1.7565   10.9972 H       1  LIG1        0.0636
     93 C           4.2466    2.9674    9.7918 C.ar    1  LIG1       -0.0600
     94 H           3.5221    2.3621    9.6837 H       1  LIG1        0.0618
     95 C           4.2087    4.1979    9.1758 C.ar    1  LIG1       -0.0616
     96 H           3.4588    4.4499    8.6498 H       1  LIG1        0.0618
     97 C           5.2771    5.0611    9.3331 C.ar    1  LIG1       -0.0600
     98 H           5.2538    5.9116    8.9096 H       1  LIG1        0.0618
     99 C           6.3840    4.7134   10.0961 C.ar    1  LIG1       -0.0404
    100 H           7.1136    5.3155   10.1853 H       1  LIG1        0.0636
    101 N          10.0174   -2.3632   12.8721 N.4     1  LIG1        0.2390
    102 N           9.3978    2.6584   17.5216 N.am    1  LIG1       -0.2957
    103 H           8.7955    2.6395   16.8810 H       1  LIG1        0.1505
    104 N           8.0354    1.2472   18.7061 N.am    1  LIG1       -0.2695
    105 H           7.7668    0.9528   17.9221 H       1  LIG1        0.1564
    106 N           9.4883    2.9636   12.6084 N.am    1  LIG1       -0.2960
    107 H           9.1213    2.3415   13.1100 H       1  LIG1        0.1505
    108 N           7.4503    3.0625   11.5823 N.am    1  LIG1       -0.2695
    109 H           7.2645    2.3986   12.1303 H       1  LIG1        0.1564
    110 O           9.7663    2.3242   19.7454 O.2     1  LIG1       -0.2525
    111 O           7.6772   10.6247   19.9689 O.3     1  LIG1       -0.4679
    112 O           6.4928    9.6031   18.3683 O.2     1  LIG1       -0.2509
    113 O           9.1282    4.5145   10.9741 O.2     1  LIG1       -0.2525
    114 C           5.4215    0.4153   15.3091 C.3     2  LIG2        0.0842
    115 H           5.4574   -0.5580   15.2012 H       2  LIG2        0.0490
    116 H           4.7967    0.7942   14.6563 H       2  LIG2        0.0490
    117 H           5.1180    0.6325   16.2152 H       2  LIG2        0.0490
    118 O           7.9066    0.3337   15.9157 O.3     2  LIG2       -0.0479
    119 O           6.9706    2.4896   15.4260 O.2     2  LIG2       -0.1453
    120 O           7.3486    0.9011   13.6414 O.2     2  LIG2       -0.1453
    121 S           7.0248    1.0932   15.0484 S.3     2  LIG2        0.1072
@<TRIPOS>BOND
     1    96    95    1
     2    98    97    1
     3    95    97   ar
     4    95    93   ar
     5    97    99   ar
     6    94    93    1
     7    93    91   ar
     8    99   100    1
     9    99    90   ar
    10    91    90   ar
    11    91    92    1
    12    90   108    1
    13    50    48    1
    14   113    89    2
    15    51    48    1
    16    49    48    1
    17    34    32    1
    18    48   101    1
    19   108    89   am
    20   108   109    1
    21    39    37    1
    22    89   106   am
    23    33    32    1
    24    32    30    1
    25    32    35    1
    26    31    30    1
    27    36    35    1
    28   106    30    1
    29   106   107    1
    30    37    35    1
    31    37    38    1
    32    37     1    1
    33    43    40    1
    34    30    28    1
    35    35     9    1
    36   101    40    1
    37   101     1    1
    38   101    44    1
    39     2     1    1
    40    41    40    1
    41    40    42    1
    42     1     3    1
    43    45    44    1
    44    46    44    1
    45    44    47    1
    46   120   121    2
    47    24    23    1
    48    54    52    1
    49    25    23    1
    50    53    52    1
    51    28    29    1
    52    28    26    1
    53    28    10    1
    54     9    52    1
    55     9     6    1
    56     9    10    1
    57    23    26    1
    58    23    20    1
    59    52    55    1
    60     7     6    1
    61   116   114    1
    62     3     6    1
    63     3     4    1
    64     3     5    1
    65    11    10    1
    66     6     8    1
    67    26    27    1
    68    26    17    1
    69   121   114    1
    70   121   119    2
    71   121   118    1
    72    10    12    1
    73   115   114    1
    74   114   117    1
    75    21    20    1
    76    20    22    1
    77    20    18    1
    78    71    68    1
    79    69    68    1
    80    17    68    1
    81    17    18    1
    82    17    15    1
    83    12    13    1
    84    12    14    1
    85    12    15    1
    86    68    70    1
    87    18    19    1
    88    18    72    1
    89   103   102    1
    90    15   102    1
    91    15    16    1
    92    75    74    1
    93   102    56   am
    94   105   104    1
    95    73    72    1
    96    72    74    1
    97    72    85    1
    98    74    76    1
    99    74    77    1
   100   112    80    2
   101   104    56   am
   102   104    57    1
   103    56   110    2
   104    67    66    1
   105    84    81    1
   106    80    77    1
   107    80   111    1
   108    79    77    1
   109    77    78    1
   110    87    85    1
   111    85    88    1
   112    85    86    1
   113    66    57   ar
   114    66    64   ar
   115    57    58   ar
   116    81   111    1
   117    81    83    1
   118    81    82    1
   119    65    64    1
   120    64    62   ar
   121    58    59    1
   122    58    60   ar
   123    62    60   ar
   124    62    63    1
   125    60    61    1
