@<TRIPOS>MOLECULE
7,8,15,16, 23,24,31,32-Octabutyl-33,34,35,36,37,38-hexathia-heptacyclo [28,2,1^6,9^,1^10,13^,1^14,17^,1^22,25^,1^26,29^,1^1,30^]-1(32),6,8,10,12,14, 16,22,24,26,28,30-dodecaene-2,4,18,20-tetrayne
 73 75 0 0 0
SMALL
GASTEIGER

@<TRIPOS>ATOM
      1 S          10.4037    7.8662    3.0358 S.2     1  LIG1       -0.0788
      2 S           8.1592    6.4478    1.3296 S.2     1  LIG1       -0.0872
      3 S           6.9131    6.8393   -1.4338 S.2     1  LIG1       -0.0788
      4 C          10.9617    6.9713    5.3957 C.ar    1  LIG1       -0.0210
      5 C           7.7203    5.0381    0.4187 C.ar    1  LIG1        0.0268
      6 C           5.7582    4.9787   -2.7899 C.ar    1  LIG1       -0.0210
      7 C          10.2478    5.9311    4.7238 C.ar    1  LIG1       -0.0277
      8 C           9.8766    6.2721    3.4472 C.ar    1  LIG1        0.0305
      9 C           6.0125    6.3317   -2.8120 C.ar    1  LIG1        0.0669
     10 C          12.0710   10.4936    4.6790 C.1     1  LIG1       -0.0087
     11 C           5.7731    7.3671   -3.7499 C.1     1  LIG1       -0.0450
     12 C           6.9750    5.2282   -0.8080 C.ar    1  LIG1        0.0305
     13 C           7.2693    1.9803   -1.8491 C.3     1  LIG1       -0.0493
     14 C          11.4133    6.9020    6.8178 C.3     1  LIG1       -0.0257
     15 C           6.3006    4.3439   -1.6352 C.ar    1  LIG1       -0.0277
     16 C          11.1141    8.0856    4.5908 C.ar    1  LIG1        0.0669
     17 C           6.1529    2.8796   -1.3149 C.3     1  LIG1       -0.0263
     18 C          10.2811    7.2021    7.8182 C.3     1  LIG1       -0.0492
     19 C           9.1175    5.5368    2.4481 C.ar    1  LIG1        0.0268
     20 C           5.8275    8.4407   -4.2897 C.1     1  LIG1       -0.0087
     21 C          11.7036    9.3535    4.8111 C.1     1  LIG1       -0.0450
     22 C           9.9617    4.5807    5.3269 C.3     1  LIG1       -0.0263
     23 C          10.6924    2.1445    5.3942 C.3     1  LIG1       -0.0556
     24 C           8.2645    3.9271    1.0084 C.ar    1  LIG1       -0.0458
     25 C          11.0791    3.5708    5.0519 C.3     1  LIG1       -0.0493
     26 C           7.1421    0.5571   -1.3395 C.3     1  LIG1       -0.0556
     27 C           5.8499    4.1568   -5.1803 C.3     1  LIG1       -0.0492
     28 C           9.0373    4.2054    2.1444 C.ar    1  LIG1       -0.0458
     29 C           8.5994    8.8864    8.6497 C.3     1  LIG1       -0.0653
     30 C           4.5700    2.2149   -6.1935 C.3     1  LIG1       -0.0653
     31 C           5.0206    4.2998   -3.9096 C.3     1  LIG1       -0.0257
     32 C           5.0607    3.6185   -6.3706 C.3     1  LIG1       -0.0556
     33 C           9.9070    8.6550    7.8737 C.3     1  LIG1       -0.0556
     34 C          11.7533    1.1458    4.9735 C.3     1  LIG1       -0.0653
     35 C           8.2936   -0.3407   -1.7529 C.3     1  LIG1       -0.0653
     36 H           9.1018    4.2406    4.9191 H       1  LIG1        0.0314
     37 H           9.8368    4.6551    6.2621 H       1  LIG1        0.0314
     38 H           5.2816    2.5621   -1.6764 H       1  LIG1        0.0314
     39 H           6.1035    2.7603   -0.3637 H       1  LIG1        0.0314
     40 H          11.3014    3.5934    4.0849 H       1  LIG1        0.0268
     41 H          11.8664    3.8361    5.5794 H       1  LIG1        0.0268
     42 H           8.1848    3.0636    0.6492 H       1  LIG1        0.0629
     43 H           4.7077    3.4337   -3.6159 H       1  LIG1        0.0314
     44 H           8.1267    2.3538   -1.5583 H       1  LIG1        0.0268
     45 H           9.4685    3.5672    2.6493 H       1  LIG1        0.0629
     46 H           4.2086    4.7704   -4.0944 H       1  LIG1        0.0314
     47 H          12.1792    7.4902    6.9304 H       1  LIG1        0.0314
     48 H           7.2822    1.9838   -2.7865 H       1  LIG1        0.0268
     49 H          10.5198    2.0647    6.3450 H       1  LIG1        0.0263
     50 H           6.5999    3.5874   -4.9669 H       1  LIG1        0.0268
     51 H           9.8308    1.9352    4.9414 H       1  LIG1        0.0263
     52 H          11.7286    6.0160    7.0213 H       1  LIG1        0.0314
     53 H           6.2354    0.1577   -1.6461 H       1  LIG1        0.0263
     54 H          12.6254    1.3266    5.4550 H       1  LIG1        0.0230
     55 H           8.6763    8.5175    9.5973 H       1  LIG1        0.0230
     56 H           9.2944    6.9564    7.7136 H       1  LIG1        0.0268
     57 H           5.6947    3.6258   -7.1282 H       1  LIG1        0.0263
     58 H          11.9449    1.2113    4.0195 H       1  LIG1        0.0230
     59 H           6.2760    4.9908   -5.4215 H       1  LIG1        0.0268
     60 H          10.7273    9.1707    8.2974 H       1  LIG1        0.0263
     61 H           4.3134    4.2385   -6.5396 H       1  LIG1        0.0263
     62 H           7.0842    0.5561   -0.4004 H       1  LIG1        0.0263
     63 H           8.3675   -0.3741   -2.8073 H       1  LIG1        0.0230
     64 H           5.3477    1.6461   -5.9240 H       1  LIG1        0.0230
     65 H           9.1899    0.0162   -1.4276 H       1  LIG1        0.0230
     66 H           7.8828    8.4730    8.2798 H       1  LIG1        0.0230
     67 H           4.0024    2.1354   -5.4710 H       1  LIG1        0.0230
     68 H           4.1256    1.8786   -6.9942 H       1  LIG1        0.0230
     69 H           9.8342    9.0473    6.8427 H       1  LIG1        0.0263
     70 H           8.1902   -1.2153   -1.3877 H       1  LIG1        0.0230
     71 H           8.3447    9.8340    8.6929 H       1  LIG1        0.0230
     72 H          10.5564    6.9159    8.7360 H       1  LIG1        0.0268
     73 H          11.5089    0.2224    5.1488 H       1  LIG1        0.0230
@<TRIPOS>BOND
     1    57    32    1
     2    68    30    1
     3    61    32    1
     4    32    30    1
     5    32    27    1
     6    30    64    1
     7    30    67    1
     8    59    27    1
     9    27    50    1
    10    27    31    1
    11    20    11    3
    12    46    31    1
    13    31    43    1
    14    31     6    1
    15    11     9    1
    16     9     6   ar
    17     9     3   ar
    18    63    35    1
    19     6    15   ar
    20    48    13    1
    21    13    44    1
    22    13    26    1
    23    13    17    1
    24    35    65    1
    25    35    70    1
    26    35    26    1
    27    38    17    1
    28    53    26    1
    29    15    17    1
    30    15    12   ar
    31     3    12   ar
    32    26    62    1
    33    17    39    1
    34    12     5    1
    35     5    24   ar
    36     5     2   ar
    37    42    24    1
    38    24    28   ar
    39     2    19   ar
    40    28    19   ar
    41    28    45    1
    42    19     8    1
    43     1     8   ar
    44     1    16   ar
    45     8     7   ar
    46    58    34    1
    47    40    25    1
    48    16    21    1
    49    16     4   ar
    50    10    21    3
    51     7    22    1
    52     7     4   ar
    53    36    22    1
    54    51    23    1
    55    34    73    1
    56    34    23    1
    57    34    54    1
    58    25    22    1
    59    25    23    1
    60    25    41    1
    61    22    37    1
    62    23    49    1
    63     4    14    1
    64    14    47    1
    65    14    52    1
    66    14    18    1
    67    69    33    1
    68    56    18    1
    69    18    33    1
    70    18    72    1
    71    33    60    1
    72    33    29    1
    73    66    29    1
    74    29    71    1
    75    29    55    1
