@<TRIPOS>MOLECULE
7113230.cif
 97 99 0 0 0
SMALL
GASTEIGER

@<TRIPOS>ATOM
      1 O          -9.1760   -5.6438  -20.6507 O.3     1  LIG1       -0.3918
      2 O          -6.7244   -1.6818  -19.0172 O.3     1  LIG1       -0.3915
      3 O         -10.5168    0.7201  -20.0507 O.3     1  LIG1       -0.3912
      4 O          -8.3869    8.3273  -20.0816 O.2     1  LIG1       -0.2760
      5 O          -8.6536    0.9734  -21.9987 O.3     2  LIG2       -0.3913
      6 N         -10.6241    8.1173  -20.0405 N.am    1  LIG1       -0.3293
      7 C         -10.9228   -3.6970  -17.9302 C.3     1  LIG1       -0.0448
      8 C         -10.6708   -4.2803  -19.3418 C.3     1  LIG1       -0.0263
      9 C          -9.4207   -5.1337  -19.3192 C.3     1  LIG1        0.0555
     10 C          -8.2485   -4.3237  -18.8425 C.3     1  LIG1       -0.0234
     11 C          -8.4620   -3.7220  -17.4473 C.3     1  LIG1       -0.0307
     12 C          -7.2294   -2.9586  -16.9726 C.3     1  LIG1       -0.0232
     13 C          -7.0451   -1.5801  -17.6281 C.3     1  LIG1        0.0589
     14 C          -8.3310   -0.7601  -17.5172 C.3     1  LIG1       -0.0081
     15 C          -9.5765   -1.4985  -18.0494 C.3     1  LIG1       -0.0276
     16 C          -9.7708   -2.8869  -17.3343 C.3     1  LIG1       -0.0257
     17 C         -10.8376   -0.6017  -18.0000 C.3     1  LIG1       -0.0226
     18 C         -10.6516    0.8051  -18.6185 C.3     1  LIG1        0.0614
     19 C          -9.4180    1.5068  -18.0350 C.3     1  LIG1        0.0001
     20 C          -8.1963    0.5867  -18.2240 C.3     1  LIG1       -0.0276
     21 C          -7.0158    1.4668  -17.8870 C.3     1  LIG1       -0.0490
     22 C          -7.4246    2.8769  -18.3637 C.3     1  LIG1       -0.0491
     23 C          -8.9203    2.8019  -18.7788 C.3     1  LIG1       -0.0304
     24 C          -9.6938    1.8401  -16.5596 C.3     1  LIG1       -0.0567
     25 C         -10.1200   -2.6652  -15.8548 C.3     1  LIG1       -0.0590
     26 C          -9.6645    4.1137  -18.5076 C.3     1  LIG1       -0.0400
     27 C         -11.1511    4.0587  -18.8816 C.3     1  LIG1       -0.0621
     28 C          -9.0147    5.2971  -19.2720 C.3     1  LIG1       -0.0419
     29 C          -9.3483    6.6755  -18.6021 C.3     1  LIG1        0.0240
     30 C          -9.4235    7.7856  -19.6233 C.2     1  LIG1        0.2105
     31 C          -9.3740   -1.7535  -22.3501 C.3     2  LIG2       -0.0577
     32 C          -9.2273   -0.8601  -23.5747 C.3     2  LIG2       -0.0117
     33 C          -9.4454    0.6217  -23.1514 C.3     2  LIG2        0.0601
     34 C          -9.1494    1.6418  -24.2220 C.3     2  LIG2       -0.0266
     35 C          -9.7121    3.0186  -23.9035 C.3     2  LIG2       -0.0536
     36 C          -9.3474    4.0953  -24.9165 C.3     2  LIG2       -0.0652
     37 C         -10.3409   -1.2334  -24.5569 C.3     2  LIG2       -0.0577
     38 C          -7.8627   -1.0601  -24.1953 C.3     2  LIG2       -0.0577
     39 H         -11.7129   -3.0769  -18.0268 H       1  LIG1        0.0271
     40 H         -11.2345   -4.3937  -17.3631 H       1  LIG1        0.0271
     41 H         -11.4214   -4.8104  -19.6254 H       1  LIG1        0.0290
     42 H         -10.5517   -3.5720  -19.9644 H       1  LIG1        0.0290
     43 H          -9.5875   -5.8605  -18.6987 H       1  LIG1        0.0593
     44 H          -7.4832   -4.9271  -18.8343 H       1  LIG1        0.0293
     45 H          -8.0808   -3.6470  -19.4774 H       1  LIG1        0.0293
     46 H          -8.5803   -4.4854  -16.8473 H       1  LIG1        0.0308
     47 H          -7.3238   -2.8819  -15.9987 H       1  LIG1        0.0293
     48 H          -6.4787   -3.5236  -17.1288 H       1  LIG1        0.0293
     49 H          -6.3614   -1.0584  -17.1822 H       1  LIG1        0.0596
     50 H          -8.5015   -0.5950  -16.5658 H       1  LIG1        0.0331
     51 H          -9.3740   -1.7218  -18.9699 H       1  LIG1        0.0310
     52 H         -11.5470   -1.0534  -18.4727 H       1  LIG1        0.0293
     53 H         -11.1025   -0.5117  -17.0898 H       1  LIG1        0.0293
     54 H         -11.4333    1.3468  -18.4192 H       1  LIG1        0.0599
     55 H          -8.1468    0.3950  -19.1261 H       1  LIG1        0.0310
     56 H          -6.8004    1.4468  -16.9768 H       1  LIG1        0.0268
     57 H          -6.2423    1.1551  -18.3946 H       1  LIG1        0.0268
     58 H          -6.8655    3.2436  -19.1076 H       1  LIG1        0.0268
     59 H          -7.2972    3.5803  -17.6569 H       1  LIG1        0.0268
     60 H          -8.9799    2.6585  -19.7302 H       1  LIG1        0.0310
     61 H          -8.9295    2.2535  -16.1363 H       1  LIG1        0.0236
     62 H         -10.4444    2.3952  -16.4405 H       1  LIG1        0.0236
     63 H          -9.8551    1.0117  -16.0603 H       1  LIG1        0.0236
     64 H          -9.3694   -2.2018  -15.4028 H       1  LIG1        0.0235
     65 H         -10.8789   -2.1268  -15.7521 H       1  LIG1        0.0235
     66 H         -10.2373   -3.4869  -15.3720 H       1  LIG1        0.0235
     67 H          -9.5600    4.2987  -17.5521 H       1  LIG1        0.0301
     68 H         -11.6423    4.8921  -18.5918 H       1  LIG1        0.0233
     69 H         -11.3454    3.9253  -19.7692 H       1  LIG1        0.0233
     70 H         -11.6450    3.3586  -18.3555 H       1  LIG1        0.0233
     71 H          -9.2731    5.3004  -20.1843 H       1  LIG1        0.0272
     72 H          -8.0212    5.1904  -19.2761 H       1  LIG1        0.0272
     73 H         -10.2199    6.5689  -18.1398 H       1  LIG1        0.0358
     74 H          -8.7214    6.8922  -17.9055 H       1  LIG1        0.0358
     75 H          -8.8506   -6.7539  -20.5603 H       1  LIG1        0.2098
     76 H          -6.0260   -2.1802  -19.2658 H       1  LIG1        0.2098
     77 H         -11.1822    0.4784  -20.4083 H       1  LIG1        0.2098
     78 H         -11.0493    8.9707  -20.1350 H       1  LIG1        0.1449
     79 H         -11.3609    7.6823  -19.8103 H       1  LIG1        0.1449
     80 H          -8.6848   -1.5585  -21.7069 H       2  LIG2        0.0236
     81 H         -10.2236   -1.6435  -21.8877 H       2  LIG2        0.0236
     82 H          -9.3061   -2.7119  -22.5350 H       2  LIG2        0.0236
     83 H         -10.3372    0.7301  -22.9233 H       2  LIG2        0.0598
     84 H          -8.1825    1.7701  -24.3329 H       2  LIG2        0.0290
     85 H          -9.4931    1.3901  -25.0706 H       2  LIG2        0.0290
     86 H          -9.3648    3.3003  -23.0384 H       2  LIG2        0.0263
     87 H         -10.6653    2.9319  -23.8007 H       2  LIG2        0.0263
     88 H          -9.7873    4.9487  -24.6843 H       2  LIG2        0.0230
     89 H          -8.4620    4.2220  -25.0336 H       2  LIG2        0.0230
     90 H          -9.7681    3.8603  -25.7877 H       2  LIG2        0.0230
     91 H         -11.2115   -1.0968  -24.2220 H       2  LIG2        0.0236
     92 H         -10.2804   -2.1435  -24.8877 H       2  LIG2        0.0236
     93 H         -10.2685   -0.6717  -25.3768 H       2  LIG2        0.0236
     94 H          -7.6830   -2.0185  -24.4192 H       2  LIG2        0.0236
     95 H          -7.7334   -0.5834  -25.0028 H       2  LIG2        0.0236
     96 H          -7.1780   -0.8201  -23.5747 H       2  LIG2        0.0236
     97 H          -9.2438    0.6451  -21.1953 H       2  LIG2        0.2098
@<TRIPOS>BOND
     1    90    36    1
     2    93    37    1
     3    85    34    1
     4    89    36    1
     5    95    38    1
     6    36    88    1
     7    36    35    1
     8    92    37    1
     9    37    91    1
    10    37    32    1
    11    94    38    1
    12    84    34    1
    13    34    35    1
    14    34    33    1
    15    38    32    1
    16    38    96    1
    17    35    87    1
    18    35    86    1
    19    32    33    1
    20    32    31    1
    21    33    83    1
    22    33     5    1
    23    82    31    1
    24    31    81    1
    25    31    80    1
    26     5    97    1
    27     1    75    1
    28     1     9    1
    29    77     3    1
    30    71    28    1
    31    78     6    1
    32     4    30    2
    33     3    18    1
    34     6    79    1
    35     6    30   am
    36    42     8    1
    37    69    27    1
    38    60    23    1
    39    41     8    1
    40    30    29    1
    41    45    10    1
    42     8     9    1
    43     8     7    1
    44     9    10    1
    45     9    43    1
    46    72    28    1
    47    28    29    1
    48    28    26    1
    49    76     2    1
    50    55    20    1
    51    58    22    1
    52     2    13    1
    53    51    15    1
    54    27    68    1
    55    27    26    1
    56    27    70    1
    57    10    44    1
    58    10    11    1
    59    23    26    1
    60    23    22    1
    61    23    19    1
    62    18    54    1
    63    18    19    1
    64    18    17    1
    65    29    73    1
    66    29    74    1
    67    26    67    1
    68    52    17    1
    69    57    21    1
    70    22    21    1
    71    22    59    1
    72    20    19    1
    73    20    21    1
    74    20    14    1
    75    15    17    1
    76    15    14    1
    77    15    16    1
    78    19    24    1
    79    39     7    1
    80    17    53    1
    81     7    40    1
    82     7    16    1
    83    21    56    1
    84    13    14    1
    85    13    49    1
    86    13    12    1
    87    14    50    1
    88    11    16    1
    89    11    12    1
    90    11    46    1
    91    16    25    1
    92    48    12    1
    93    12    47    1
    94    24    62    1
    95    24    61    1
    96    24    63    1
    97    25    65    1
    98    25    64    1
    99    25    66    1
