@<TRIPOS>MOLECULE
7113510.cif
 29 30 0 0 0
SMALL
GASTEIGER

@<TRIPOS>ATOM
      1 C           2.4321    6.9376    2.1645 C.3     1  LIG1        0.1862
      2 C           2.9658    7.4178    0.8191 C.2     1  LIG1       -0.0525
      3 H           3.8616    7.8001    0.7524 H       1  LIG1        0.0591
      4 C           2.0995    7.1361   -0.1634 C.2     1  LIG1       -0.0390
      5 C           0.9006    6.5009    0.3676 C.2     1  LIG1       -0.0388
      6 C           0.9668    6.4907    1.8650 C.3     1  LIG1        0.0025
      7 H           0.3584    7.1120    2.2465 H       1  LIG1        0.0332
      8 H           0.7631    5.6241    2.2465 H       1  LIG1        0.0332
      9 C           2.0129    7.1623   -1.6521 C.3     1  LIG1        0.0351
     10 H           1.9501    8.0707   -2.0746 H       1  LIG1        0.0393
     11 H           2.7556    6.7230   -2.0961 H       1  LIG1        0.0393
     12 C           0.6990    6.4085   -1.9112 C.2     1  LIG1        0.1606
     13 C           0.0833    6.0737   -0.6116 C.2     1  LIG1       -0.0154
     14 H          -0.7302    5.6185   -0.5160 H       1  LIG1        0.0655
     15 C           3.2129    5.7105    2.6507 C.2     1  LIG1        0.3282
     16 C           3.6706    4.3772    4.5522 C.3     1  LIG1        0.0817
     17 H           3.6040    4.4556    5.4712 H       1  LIG1        0.0661
     18 H           3.1313    3.5322    4.3211 H       1  LIG1        0.0661
     19 H           4.5983    4.2286    4.3318 H       1  LIG1        0.0661
     20 C           2.5271    8.0351    3.2203 C.2     1  LIG1        0.3282
     21 C           4.0599    9.3528    4.4469 C.3     1  LIG1        0.0817
     22 H           3.7371    9.0349    5.3208 H       1  LIG1        0.0661
     23 H           5.0231    9.5086    4.4501 H       1  LIG1        0.0661
     24 H           3.5650   10.1708    4.2351 H       1  LIG1        0.0661
     25 O           0.2636    6.1242   -3.0198 O.2     1  LIG1       -0.2923
     26 O           3.0791    5.5677    3.9707 O.3     1  LIG1       -0.4669
     27 O           3.8078    4.9517    1.9316 O.2     1  LIG1       -0.2492
     28 O           3.8084    8.3737    3.4021 O.3     1  LIG1       -0.4669
     29 O           1.5982    8.5397    3.7976 O.2     1  LIG1       -0.2492
@<TRIPOS>BOND
     1    25    12    2
     2    11     9    1
     3    10     9    1
     4    12     9    1
     5    12    13    1
     6     9     4    1
     7    13    14    1
     8    13     5    2
     9     4     5    1
    10     4     2    2
    11     5     6    1
    12     3     2    1
    13     2     1    1
    14     6     1    1
    15     6     7    1
    16     6     8    1
    17    27    15    2
    18     1    15    1
    19     1    20    1
    20    15    26    1
    21    20    28    1
    22    20    29    2
    23    28    21    1
    24    26    16    1
    25    24    21    1
    26    18    16    1
    27    19    16    1
    28    21    23    1
    29    21    22    1
    30    16    17    1
