@<TRIPOS>MOLECULE
7113434.cif
 50 52 0 0 0
SMALL
GASTEIGER

@<TRIPOS>ATOM
      1 O           2.5595    2.3663   -6.5158 O.3     1  LIG1       -0.4570
      2 O           4.1368    1.8580   -7.9276 O.2     1  LIG1       -0.2507
      3 O           0.9694   -0.6437   -6.4927 O.3     1  LIG1       -0.3911
      4 H           1.0348   -1.3823   -6.8892 H       1  LIG1        0.2098
      5 C           3.3451    1.4581   -7.1028 C.2     1  LIG1        0.3101
      6 C           3.2986    0.0229   -6.6860 C.3     1  LIG1        0.0710
      7 H           4.1540   -0.1945   -6.2377 H       1  LIG1        0.0403
      8 H           3.2460   -0.5326   -7.5033 H       1  LIG1        0.0403
      9 C           2.1636   -0.3890   -5.7623 C.3     1  LIG1        0.0690
     10 H           2.4255   -1.2048   -5.2464 H       1  LIG1        0.0600
     11 C           1.8619    0.7380   -4.8140 C.3     1  LIG1        0.0146
     12 H           2.6580    0.9226   -4.2551 H       1  LIG1        0.0329
     13 H           1.1189    0.4767   -4.2146 H       1  LIG1        0.0329
     14 C           1.4788    1.9898   -5.5787 C.3     1  LIG1        0.1236
     15 H           0.6433    1.8112   -6.0974 H       1  LIG1        0.0780
     16 C           1.2712    3.1881   -4.7243 C.2     1  LIG1       -0.0475
     17 H           2.0081    3.4828   -4.2021 H       1  LIG1        0.0605
     18 C           0.1528    3.8737   -4.6307 C.2     1  LIG1       -0.0806
     19 H          -0.5941    3.5705   -5.1342 H       1  LIG1        0.0573
     20 C          -0.0271    5.1040   -3.7850 C.3     1  LIG1       -0.0134
     21 H           0.8155    5.2252   -3.2607 H       1  LIG1        0.0351
     22 C          -0.2004    6.3671   -4.6632 C.3     1  LIG1       -0.0192
     23 H           0.6887    6.5676   -5.0750 H       1  LIG1        0.0346
     24 C          -0.5736    7.5460   -3.8097 C.2     1  LIG1       -0.0843
     25 H          -0.5105    8.4097   -4.2021 H       1  LIG1        0.0572
     26 C          -0.9811    7.4742   -2.5599 C.2     1  LIG1       -0.0843
     27 H          -1.2003    8.2831   -2.1104 H       1  LIG1        0.0572
     28 C          -1.1172    6.1856   -1.8052 C.3     1  LIG1       -0.0193
     29 H          -0.2968    6.0769   -1.2438 H       1  LIG1        0.0346
     30 C          -2.3242    6.1747   -0.8629 C.3     1  LIG1       -0.0439
     31 H          -2.2550    6.9396   -0.2369 H       1  LIG1        0.0274
     32 H          -3.1519    6.2903   -1.3934 H       1  LIG1        0.0274
     33 C          -2.4222    4.8791   -0.0605 C.3     1  LIG1       -0.0433
     34 H          -3.3180    4.8741    0.3834 H       1  LIG1        0.0298
     35 C          -2.3768    3.6703   -0.9975 C.3     1  LIG1       -0.0502
     36 H          -2.3236    2.8455   -0.4520 H       1  LIG1        0.0268
     37 H          -3.2200    3.6354   -1.5150 H       1  LIG1        0.0268
     38 C          -1.1992    3.6952   -1.9729 C.3     1  LIG1       -0.0489
     39 H          -0.3521    3.6045   -1.4682 H       1  LIG1        0.0268
     40 H          -1.2701    2.9273   -2.5936 H       1  LIG1        0.0268
     41 C          -1.1776    4.9941   -2.7719 C.3     1  LIG1       -0.0280
     42 H          -2.0379    5.0556   -3.2794 H       1  LIG1        0.0312
     43 C          -1.2069    6.2116   -5.8078 C.3     1  LIG1       -0.0584
     44 H          -1.2728    7.0553   -6.3032 H       1  LIG1        0.0236
     45 H          -2.0850    5.9782   -5.4428 H       1  LIG1        0.0236
     46 H          -0.9063    5.5014   -6.4123 H       1  LIG1        0.0236
     47 C          -1.3741    4.7973    1.0381 C.3     1  LIG1       -0.0624
     48 H          -1.4240    5.6002    1.5992 H       1  LIG1        0.0232
     49 H          -0.4828    4.7345    0.6359 H       1  LIG1        0.0232
     50 H          -1.5402    4.0044    1.5898 H       1  LIG1        0.0232
@<TRIPOS>BOND
     1     2     5    2
     2     8     6    1
     3     5     6    1
     4     5     1    1
     5     4     3    1
     6     6     7    1
     7     6     9    1
     8     1    14    1
     9     3     9    1
    10    46    43    1
    11    44    43    1
    12    15    14    1
    13    43    45    1
    14    43    22    1
    15     9    10    1
    16     9    11    1
    17    14    11    1
    18    14    16    1
    19    19    18    1
    20    23    22    1
    21    11    12    1
    22    11    13    1
    23    16    18    2
    24    16    17    1
    25    22    24    1
    26    22    20    1
    27    18    20    1
    28    25    24    1
    29    24    26    2
    30    20    21    1
    31    20    41    1
    32    42    41    1
    33    41    38    1
    34    41    28    1
    35    40    38    1
    36    26    27    1
    37    26    28    1
    38    38    39    1
    39    38    35    1
    40    28    29    1
    41    28    30    1
    42    37    35    1
    43    32    30    1
    44    35    36    1
    45    35    33    1
    46    30    31    1
    47    30    33    1
    48    33    34    1
    49    33    47    1
    50    49    47    1
    51    47    50    1
    52    47    48    1
