@<TRIPOS>MOLECULE
?
 34 35 0 0 0
SMALL
GASTEIGER

@<TRIPOS>ATOM
      1 N           0.2949    3.7787   24.5127 N.pl3   1  LIG1        0.0564
      2 N          -0.1382    3.2792   18.0750 N.am    1  LIG1       -0.2810
      3 H          -0.3355    4.1027   18.3794 H       1  LIG1        0.1551
      4 C           0.2639    3.4267   23.0757 C.ar    1  LIG1        0.1262
      5 C          -0.6445    4.0115   22.2670 C.ar    1  LIG1       -0.0308
      6 H          -1.3071    4.5828   22.6626 H       1  LIG1        0.0640
      7 C          -0.6975    3.6817   20.9176 C.ar    1  LIG1       -0.0475
      8 H          -1.3252    4.0988   20.3242 H       1  LIG1        0.0626
      9 C           0.2165    2.7759   20.4111 C.ar    1  LIG1        0.0372
     10 C           1.1306    2.1968   21.2681 C.ar    1  LIG1       -0.0475
     11 H           1.7622    1.5644   20.9176 H       1  LIG1        0.0626
     12 C           1.1684    2.5295   22.5975 C.ar    1  LIG1       -0.0308
     13 H           1.7278    2.0698   23.2284 H       1  LIG1        0.0640
     14 C           0.1985    2.3501   18.9780 C.2     1  LIG1        0.2483
     15 C          -0.2588    3.0261   16.6670 C.ar    1  LIG1        0.0395
     16 C          -1.2569    2.1774   16.2108 C.ar    1  LIG1       -0.0290
     17 C          -1.3821    2.0184   14.8163 C.ar    1  LIG1       -0.0571
     18 H          -2.0825    1.4548   14.4808 H       1  LIG1        0.0621
     19 C          -0.5498    2.6750   13.9576 C.ar    1  LIG1       -0.0611
     20 H          -0.6225    2.5256   13.0112 H       1  LIG1        0.0618
     21 C           0.4173    3.4839   14.4408 C.ar    1  LIG1       -0.0571
     22 H           1.0020    3.9320   13.8249 H       1  LIG1        0.0621
     23 C           0.6039    3.6827   15.8002 C.ar    1  LIG1       -0.0290
     24 C          -2.2088    1.4810   17.1196 C.3     1  LIG1       -0.0379
     25 H          -2.8167    0.9437   16.6064 H       1  LIG1        0.0278
     26 H          -1.7159    0.9185   17.7205 H       1  LIG1        0.0278
     27 H          -2.7039    2.1318   17.6228 H       1  LIG1        0.0278
     28 C           1.6906    4.5964   16.2859 C.3     1  LIG1       -0.0379
     29 H           1.6861    4.6284   17.2448 H       1  LIG1        0.0278
     30 H           2.5325    4.2511   15.9805 H       1  LIG1        0.0278
     31 H           1.5614    5.4819   15.9354 H       1  LIG1        0.0278
     32 O           1.1526    3.2967   25.2188 O.2     1  LIG1       -0.1261
     33 O          -0.5413    4.5343   24.9261 O.2     1  LIG1       -0.1261
     34 O           0.4838    1.1959   18.6749 O.2     1  LIG1       -0.2699
@<TRIPOS>BOND
     1    20    19    1
     2    22    21    1
     3    19    21   ar
     4    19    17   ar
     5    21    23   ar
     6    18    17    1
     7    17    16   ar
     8    23    28    1
     9    23    15   ar
    10    31    28    1
    11    30    28    1
    12    16    15   ar
    13    16    24    1
    14    28    29    1
    15    25    24    1
    16    15     2    1
    17    24    27    1
    18    24    26    1
    19     2     3    1
    20     2    14   am
    21    34    14    2
    22    14     9    1
    23     8     7    1
    24     9     7   ar
    25     9    10   ar
    26    11    10    1
    27     7     5   ar
    28    10    12   ar
    29     5     6    1
    30     5     4   ar
    31    12     4   ar
    32    12    13    1
    33     4     1    1
    34     1    33    2
    35     1    32    2
