@<TRIPOS>MOLECULE
7114899.cif
 70 76 0 0 0
SMALL
GASTEIGER

@<TRIPOS>ATOM
      1 S           4.9981    2.5913    3.0825 S.2     1  LIG1       -0.0925
      2 S           2.4611    0.9250    1.7343 S.2     1  LIG1       -0.0925
      3 S           2.9480    4.8533    5.0670 S.2     1  LIG1       -0.0925
      4 S           1.0670    2.0546    5.0666 S.2     1  LIG1       -0.0925
      5 S           3.1278    5.1008    1.5762 S.2     1  LIG1       -0.0925
      6 S           0.2085    3.7658    1.8226 S.2     1  LIG1       -0.0925
      7 C           5.2184    5.3703    3.4520 C.3     1  LIG1        0.0613
      8 C           5.7089    4.1118    2.7480 C.ar    1  LIG1        0.0059
      9 C           6.6004    3.9956    1.7170 C.ar    1  LIG1       -0.0498
     10 C           6.6858    2.6867    1.2162 C.ar    1  LIG1       -0.0472
     11 C           5.8573    1.7885    1.8342 C.ar    1  LIG1        0.0125
     12 C           5.8080    0.3684    1.5781 C.2     1  LIG1       -0.0469
     13 C           4.8575   -0.5252    1.8361 C.2     1  LIG1       -0.0469
     14 C           3.4925   -0.3352    2.3095 C.ar    1  LIG1        0.0125
     15 C           2.8043   -1.1438    3.1421 C.ar    1  LIG1       -0.0472
     16 C           1.4650   -0.7462    3.3556 C.ar    1  LIG1       -0.0498
     17 C           1.1324    0.3704    2.6668 C.ar    1  LIG1        0.0059
     18 C           4.6339    5.0064    4.8090 C.ar    1  LIG1        0.0059
     19 C           5.2974    4.6934    5.9506 C.ar    1  LIG1       -0.0498
     20 C           4.4588    4.3424    7.0118 C.ar    1  LIG1       -0.0472
     21 C           3.1430    4.3506    6.7122 C.ar    1  LIG1        0.0125
     22 C           2.0356    4.0689    7.6119 C.2     1  LIG1       -0.0469
     23 C           0.8192    3.5953    7.3851 C.2     1  LIG1       -0.0469
     24 C           0.2185    3.0923    6.1490 C.ar    1  LIG1        0.0125
     25 C          -1.0566    3.2574    5.7295 C.ar    1  LIG1       -0.0472
     26 C          -1.3478    2.6018    4.5180 C.ar    1  LIG1       -0.0498
     27 C          -0.2872    1.8984    4.0360 C.ar    1  LIG1        0.0059
     28 C           4.1531    6.0404    2.5760 C.ar    1  LIG1        0.0059
     29 C           3.8443    7.3400    2.4475 C.ar    1  LIG1       -0.0498
     30 C           2.7774    7.5782    1.5592 C.ar    1  LIG1       -0.0472
     31 C           2.2533    6.4675    1.0130 C.ar    1  LIG1        0.0125
     32 C           1.2032    6.4348    0.0076 C.2     1  LIG1       -0.0469
     33 C           0.3506    5.4833   -0.3827 C.2     1  LIG1       -0.0469
     34 C           0.0945    4.1470    0.1474 C.ar    1  LIG1        0.0125
     35 C          -0.3254    3.0588   -0.5500 C.ar    1  LIG1       -0.0472
     36 C          -0.5055    1.9181    0.2523 C.ar    1  LIG1       -0.0498
     37 C          -0.2449    2.1338    1.5640 C.ar    1  LIG1        0.0059
     38 C          -0.1783    1.1359    2.7131 C.3     1  LIG1        0.0613
     39 C           6.3870    6.3623    3.6458 C.3     1  LIG1       -0.0459
     40 C          -1.3629    0.1493    2.6138 C.3     1  LIG1       -0.0459
     41 C          -1.5546    8.6033    3.7015 C.3     1  LIG1       -0.0090
     42 C          -0.8076    7.4841    3.4624 C.2     1  LIG1       -0.0798
     43 C          -0.4681    6.6527    4.4887 C.2     1  LIG1       -0.0657
     44 H           7.1082    4.7269    1.3740 H       1  LIG1        0.0626
     45 H           7.2733    2.4481    0.5037 H       1  LIG1        0.0629
     46 H           6.5838    0.0150    1.1576 H       1  LIG1        0.0629
     47 H           5.1008   -1.4284    1.6906 H       1  LIG1        0.0629
     48 H           3.1822   -1.9130    3.5475 H       1  LIG1        0.0629
     49 H           0.8662   -1.2130    3.9236 H       1  LIG1        0.0626
     50 H           6.2391    4.7044    6.0281 H       1  LIG1        0.0626
     51 H           4.7804    4.1066    7.8802 H       1  LIG1        0.0629
     52 H           2.2248    4.2637    8.5228 H       1  LIG1        0.0629
     53 H           0.2507    3.5861    8.1439 H       1  LIG1        0.0629
     54 H          -1.6939    3.7648    6.2057 H       1  LIG1        0.0629
     55 H          -2.1908    2.6381    4.0861 H       1  LIG1        0.0626
     56 H           4.3123    8.0319    2.9011 H       1  LIG1        0.0626
     57 H           2.4623    8.4502    1.3589 H       1  LIG1        0.0629
     58 H           1.1083    7.2533   -0.4668 H       1  LIG1        0.0629
     59 H          -0.1818    5.7155   -1.1359 H       1  LIG1        0.0629
     60 H          -0.4850    3.0629   -1.4855 H       1  LIG1        0.0629
     61 H          -0.7868    1.0746   -0.0907 H       1  LIG1        0.0626
     62 H           7.0577    5.9654    4.1863 H       1  LIG1        0.0245
     63 H           6.7586    6.5798    2.7934 H       1  LIG1        0.0245
     64 H           6.0699    7.1549    4.0597 H       1  LIG1        0.0245
     65 H          -2.1751    0.6332    2.6412 H       1  LIG1        0.0245
     66 H          -1.3023   -0.3270    1.7907 H       1  LIG1        0.0245
     67 H          -1.3226   -0.4598    3.3367 H       1  LIG1        0.0245
     68 H          -1.7914    9.2038    2.9578 H       1  LIG1        0.0355
     69 H          -0.5176    7.2751    2.5458 H       1  LIG1        0.0575
     70 H           0.0778    5.8495    4.3195 H       1  LIG1        0.0614
@<TRIPOS>BOND
     1    60    35    1
     2    59    33    1
     3    35    34   ar
     4    35    36   ar
     5    58    32    1
     6    33    32    2
     7    33    34    1
     8    61    36    1
     9    32    31    1
    10    34     6   ar
    11    36    37   ar
    12    45    10    1
    13    31    30   ar
    14    31     5   ar
    15    46    12    1
    16    10     9   ar
    17    10    11   ar
    18    57    30    1
    19    44     9    1
    20    30    29   ar
    21    37     6   ar
    22    37    38    1
    23     5    28   ar
    24    12    11    1
    25    12    13    2
    26    47    13    1
    27     9     8   ar
    28     2    14   ar
    29     2    17   ar
    30    66    40    1
    31    11     1   ar
    32    13    14    1
    33    14    15   ar
    34    29    28   ar
    35    29    56    1
    36    69    42    1
    37    28     7    1
    38    40    65    1
    39    40    38    1
    40    40    67    1
    41    17    38    1
    42    17    16   ar
    43    38    27    1
    44     8     1   ar
    45     8     7    1
    46    63    39    1
    47    68    41    1
    48    15    16   ar
    49    15    48    1
    50    16    49    1
    51     7    39    1
    52     7    18    1
    53    42    41    1
    54    42    43    2
    55    39    64    1
    56    39    62    1
    57    27    26   ar
    58    27     4   ar
    59    55    26    1
    60    70    43    1
    61    26    25   ar
    62    18     3   ar
    63    18    19   ar
    64     4    24   ar
    65     3    21   ar
    66    25    24   ar
    67    25    54    1
    68    19    50    1
    69    19    20   ar
    70    24    23    1
    71    21    20   ar
    72    21    22    1
    73    20    51    1
    74    23    22    2
    75    23    53    1
    76    22    52    1
