@<TRIPOS>MOLECULE
4-bromo-2,3,5,6-fluorobenzonitrile
 13 13 0 0 0
SMALL
GASTEIGER

@<TRIPOS>ATOM
      1 BR          1.5415    4.9893    7.1667 Br      1  LIG1       -0.0442
      2 F           0.8922   -0.0455    6.1491 F       1  LIG1       -0.2010
      3 F           0.5620    2.1388    7.6741 F       1  LIG1       -0.2012
      4 F           2.7645    4.7289    4.3976 F       1  LIG1       -0.2012
      5 F           3.0550    2.5570    2.8665 F       1  LIG1       -0.2010
      6 N           2.1673   -0.8636    2.9457 N.1     1  LIG1       -0.1907
      7 C           2.0866    0.0464    3.6275 C.1     1  LIG1        0.1051
      8 C           1.9575    1.2023    4.4645 C.ar    1  LIG1        0.1277
      9 C           1.3382    1.1410    5.7152 C.ar    1  LIG1        0.1797
     10 C           1.1592    2.2523    6.4823 C.ar    1  LIG1        0.1765
     11 C           1.6669    3.4827    6.0552 C.ar    1  LIG1        0.0939
     12 C           2.2715    3.5655    4.8278 C.ar    1  LIG1        0.1765
     13 C           2.4241    2.4527    4.0356 C.ar    1  LIG1        0.1797
@<TRIPOS>BOND
     1     5    13    1
     2     6     7    3
     3     7     8    1
     4    13     8   ar
     5    13    12   ar
     6     4    12    1
     7     8     9   ar
     8    12    11   ar
     9     9     2    1
    10     9    10   ar
    11    11    10   ar
    12    11     1    1
    13    10     3    1
