@<TRIPOS>MOLECULE
2,10dibromo3(2isopropylphenyl)3(4methoxyphenyl)3Hbenzo[f]chromene
 57 61 0 0 0
SMALL
GASTEIGER

@<TRIPOS>ATOM
      1 BR          6.4479    2.6665    4.1836 Br      1  LIG1       -0.0501
      2 BR          4.2460    6.0758    1.3233 Br      1  LIG1       -0.0496
      3 O           3.3586    0.7176    2.4017 O.3     1  LIG1       -0.4706
      4 C           3.5190    2.7891    1.2365 C.ar    1  LIG1        0.0264
      5 O           6.6141   -2.6887    6.5132 O.3     1  LIG1       -0.4951
      6 C           1.6709    4.0169    5.3081 C.ar    1  LIG1       -0.0613
      7 H           1.7071    4.9517    5.4728 H       1  LIG1        0.0618
      8 C           3.2937    5.0566    0.0240 C.ar    1  LIG1        0.0263
      9 C           3.0148    3.6696    0.1826 C.ar    1  LIG1        0.0067
     10 C           2.0964    3.0999   -0.7634 C.ar    1  LIG1       -0.0160
     11 C           4.8853    2.3747    3.1585 C.2     1  LIG1        0.0483
     12 C           4.6976    3.0766    2.0493 C.2     1  LIG1       -0.0360
     13 H           5.3157    3.7503    1.7888 H       1  LIG1        0.0634
     14 C           0.5874    3.2778    5.7378 C.ar    1  LIG1       -0.0615
     15 H          -0.1292    3.7016    6.1943 H       1  LIG1        0.0618
     16 C           2.7068    3.3852    4.6360 C.ar    1  LIG1       -0.0538
     17 H           3.4538    3.8979    4.3501 H       1  LIG1        0.0622
     18 C           1.6707    1.7653   -0.6182 C.ar    1  LIG1       -0.0505
     19 H           1.0960    1.3853   -1.2709 H       1  LIG1        0.0625
     20 C           4.6728    0.3614    5.7991 C.ar    1  LIG1       -0.0507
     21 H           4.2910    1.1089    6.2437 H       1  LIG1        0.0623
     22 C           0.5517    1.9063    5.4968 C.ar    1  LIG1       -0.0579
     23 H          -0.1871    1.4009    5.8141 H       1  LIG1        0.0620
     24 C           5.3770   -0.5814    6.5431 C.ar    1  LIG1       -0.0196
     25 H           5.4976   -0.4638    7.4787 H       1  LIG1        0.0654
     26 C           2.6793    2.0126    4.3681 C.ar    1  LIG1        0.0086
     27 C           1.9382    5.2033   -1.9730 C.ar    1  LIG1       -0.0601
     28 H           1.6119    5.7132   -2.7050 H       1  LIG1        0.0618
     29 C           5.9047   -1.6978    5.8994 C.ar    1  LIG1        0.1201
     30 C           5.7150   -1.8588    4.5133 C.ar    1  LIG1       -0.0196
     31 H           6.0445   -2.6345    4.0762 H       1  LIG1        0.0654
     32 C           2.7869    5.7859   -1.0299 C.ar    1  LIG1       -0.0471
     33 H           3.0194    6.7034   -1.1152 H       1  LIG1        0.0629
     34 C           3.8548    1.3528    3.6181 C.3     1  LIG1        0.1920
     35 C           1.3966   -0.2365    4.5327 C.3     1  LIG1       -0.0211
     36 H           2.2125   -0.5685    4.0597 H       1  LIG1        0.0344
     37 C           4.5123    0.2370    4.4264 C.ar    1  LIG1        0.0054
     38 C           1.5806    3.8914   -1.8308 C.ar    1  LIG1       -0.0539
     39 H           0.9794    3.5006   -2.4535 H       1  LIG1        0.0624
     40 C           5.0559   -0.8961    3.7962 C.ar    1  LIG1       -0.0507
     41 H           4.9635   -0.9957    2.8562 H       1  LIG1        0.0623
     42 C           2.0752    1.0000    0.4581 C.ar    1  LIG1       -0.0187
     43 H           1.7526    0.1131    0.5703 H       1  LIG1        0.0654
     44 C           1.2455   -1.0253    5.8351 C.3     1  LIG1       -0.0586
     45 H           2.0204   -0.8581    6.4114 H       1  LIG1        0.0235
     46 H           1.1902   -1.9826    5.6315 H       1  LIG1        0.0235
     47 H           0.4279   -0.7413    6.2961 H       1  LIG1        0.0235
     48 C           2.9717    1.5569    1.3832 C.ar    1  LIG1        0.1306
     49 C           0.1854   -0.4638    3.6196 C.3     1  LIG1       -0.0586
     50 H          -0.6314   -0.1896    4.0866 H       1  LIG1        0.0235
     51 H           0.1255   -1.4135    3.3876 H       1  LIG1        0.0235
     52 H           0.2890    0.0667    2.8023 H       1  LIG1        0.0235
     53 C           6.8748   -2.5369    7.9098 C.3     1  LIG1        0.0788
     54 H           7.3792   -1.7109    8.0595 H       1  LIG1        0.0660
     55 H           7.3974   -3.3017    8.2287 H       1  LIG1        0.0660
     56 H           6.0256   -2.4952    8.3978 H       1  LIG1        0.0660
     57 C           1.5736    1.2539    4.7977 C.ar    1  LIG1       -0.0372
@<TRIPOS>BOND
     1    28    27    1
     2    39    38    1
     3    27    38   ar
     4    27    32   ar
     5    38    10   ar
     6    19    18    1
     7    33    32    1
     8    32     8   ar
     9    10    18   ar
    10    10     9   ar
    11    18    42   ar
    12     8     9   ar
    13     8     2    1
    14     9     4   ar
    15    42    43    1
    16    42    48   ar
    17     4    48   ar
    18     4    12    1
    19    48     3    1
    20    13    12    1
    21    12    11    2
    22     3    34    1
    23    52    49    1
    24    41    40    1
    25    11    34    1
    26    11     1    1
    27    51    49    1
    28    34    26    1
    29    34    37    1
    30    49    50    1
    31    49    35    1
    32    40    37   ar
    33    40    30   ar
    34    36    35    1
    35    31    30    1
    36    17    16    1
    37    26    16   ar
    38    26    57   ar
    39    37    20   ar
    40    30    29   ar
    41    35    57    1
    42    35    44    1
    43    16     6   ar
    44    57    22   ar
    45     6     7    1
    46     6    14   ar
    47    22    14   ar
    48    22    23    1
    49    46    44    1
    50    14    15    1
    51    20    21    1
    52    20    24   ar
    53    44    47    1
    54    44    45    1
    55    29     5    1
    56    29    24   ar
    57     5    53    1
    58    24    25    1
    59    53    54    1
    60    53    55    1
    61    53    56    1
