@<TRIPOS>MOLECULE
JB-1-2 pyrazine 1-oxide, I-(CF2)4-I
 25 24 0 0 0
SMALL
GASTEIGER

@<TRIPOS>ATOM
      1 N           2.9464   10.5207    4.8859 N.4     1  LIG1       -0.2146
      2 O           3.7512   10.0048    5.7490 O.3     1  LIG1       -0.0848
      3 C           1.8047    9.8791    4.5192 C.2     1  LIG1        0.0500
      4 H           1.5770    9.0412    4.9057 H       1  LIG1        0.0846
      5 C           0.9881   10.4595    3.5844 C.2     1  LIG1        0.0455
      6 H           0.2007    9.9951    3.3256 H       1  LIG1        0.0845
      7 N           1.2406   11.6430    3.0175 N.2     1  LIG1       -0.2638
      8 C           2.3406   12.2599    3.4225 C.2     1  LIG1        0.0325
      9 H           2.5342   13.1148    3.0561 H       1  LIG1        0.0805
     10 C           3.2207   11.7340    4.3431 C.3     1  LIG1        0.1220
     11 H           4.0026   12.2112    4.5937 H       1  LIG1        0.0634
     12 C           5.9054    6.3674    8.3246 C.3     2  LIG2        0.3646
     13 I           4.7305    7.7073    7.1306 I       2  LIG2        0.0047
     14 F           6.7246    7.0892    9.1058 F       2  LIG2       -0.1872
     15 F           6.6831    5.6147    7.5261 F       2  LIG2       -0.1872
     16 C           5.0457    5.4486    9.2110 C.3     2  LIG2        0.3876
     17 F           4.1247    6.1806    9.8385 F       2  LIG2       -0.1913
     18 F           4.4100    4.5863    8.3923 F       2  LIG2       -0.1913
     19 C           5.8375    4.6383   10.2829 C.3     2  LIG2        0.3876
     20 F           6.2673    5.5044   11.2124 F       2  LIG2       -0.1913
     21 F           6.9076    4.0828    9.6901 F       2  LIG2       -0.1913
     22 C           5.0451    3.5223   10.9872 C.3     2  LIG2        0.3646
     23 I           6.1219    2.5983   12.5937 I       2  LIG2        0.0047
     24 F           3.9047    4.0433   11.4487 F       2  LIG2       -0.1872
     25 F           4.7228    2.5867   10.0668 F       2  LIG2       -0.1872
@<TRIPOS>BOND
     1     7     8    2
     2     7     5    1
     3     9     8    1
     4     6     5    1
     5     8    10    1
     6     5     3    2
     7    10    11    1
     8    10     1    1
     9     3     1    1
    10     3     4    1
    11     1     2    1
    12    13    12    1
    13    15    12    1
    14    12    14    1
    15    12    16    1
    16    18    16    1
    17    16    17    1
    18    16    19    1
    19    21    19    1
    20    25    22    1
    21    19    22    1
    22    19    20    1
    23    22    24    1
    24    22    23    1
