@<TRIPOS>MOLECULE
C81 H19 N
 55 67 0 0 0
SMALL
GASTEIGER

@<TRIPOS>ATOM
      1 N          -0.0000    4.0707    6.1685 N.3     1  LIG1       -0.2212
      2 C           0.8044    6.2089    6.5961 C.3     1  LIG1        0.0075
      3 C           1.4279    6.1774    7.9846 C.3     1  LIG1        0.0010
      4 C           2.5752    7.0370    8.0297 C.3     1  LIG1        0.0000
      5 C           2.5776    7.8439    6.8271 C.3     1  LIG1        0.0000
      6 C           1.4385    7.4781    6.0394 C.3     1  LIG1        0.0010
      7 C           0.7385    5.9117    9.1432 C.3     1  LIG1        0.0044
      8 C           1.1810    6.4735   10.3967 C.3     1  LIG1        0.0217
      9 C           2.3155    7.2865   10.4476 C.3     1  LIG1        0.0043
     10 C           3.0246    7.5738    9.2401 C.3     1  LIG1        0.0003
     11 C           3.4738    8.9541    9.2831 C.3     1  LIG1        0.0000
     12 C           3.4684    9.7227    8.1373 C.3     1  LIG1        0.0000
     13 C           3.0271    9.1666    6.8770 C.3     1  LIG1        0.0003
     14 C           2.3111   10.1844    6.1646 C.3     1  LIG1        0.0043
     15 C           1.1748    9.8291    5.4386 C.3     1  LIG1        0.0217
     16 C           0.7393    8.4573    5.3798 C.3     1  LIG1        0.0044
     17 C          -0.0000    6.8123   11.1609 C.2     1  LIG1       -0.0310
     18 C          -0.0000    7.9743   11.9564 C.2     1  LIG1       -0.0310
     19 C           1.1733    8.8157   11.9975 C.3     1  LIG1        0.0217
     20 C           2.3047    8.4818   11.2627 C.3     1  LIG1        0.0043
     21 C           3.0208    9.5167   10.5513 C.3     1  LIG1        0.0003
     22 C           2.5908   10.8367   10.6012 C.3     1  LIG1        0.0000
     23 C           2.5930   11.6455    9.3976 C.3     1  LIG1        0.0000
     24 C           3.0215   11.1036    8.1911 C.3     1  LIG1        0.0003
     25 C           2.3078   11.3914    6.9719 C.3     1  LIG1        0.0043
     26 C           1.1748   12.2041    7.0022 C.3     1  LIG1        0.0217
     27 C          -0.0000   11.8490    6.2341 C.2     1  LIG1       -0.0310
     28 C          -0.0000   10.6820    5.4787 C.2     1  LIG1       -0.0310
     29 C           0.7285   10.1900   12.0513 C.3     1  LIG1        0.0043
     30 C           1.4228   11.1808   11.3732 C.3     1  LIG1        0.0003
     31 C           0.7006   12.2115   10.6550 C.3     1  LIG1        0.0000
     32 C           1.4155   12.4960    9.4368 C.3     1  LIG1        0.0003
     33 C           0.7291   12.7709    8.2616 C.3     1  LIG1        0.0043
     34 C           1.1305    4.9129    5.8084 C.3     1  LIG1        0.0228
     35 H           1.1624    5.0753    4.8524 H       1  LIG1        0.0447
     36 H           1.9699    4.5239    6.0961 H       1  LIG1        0.0447
     37 C          -0.0000    2.6509    5.7527 C.3     1  LIG1        0.1143
     38 C           1.2271    1.9659    6.3877 C.ar    1  LIG1       -0.0191
     39 C           1.7898    0.8111    5.8378 C.ar    1  LIG1       -0.0564
     40 H           1.4352    0.4494    5.0579 H       1  LIG1        0.0621
     41 C           2.8769    0.2010    6.4503 C.ar    1  LIG1       -0.0614
     42 H           3.2470   -0.5651    6.0726 H       1  LIG1        0.0618
     43 C           3.4158    0.7132    7.6109 C.ar    1  LIG1       -0.0617
     44 H           4.1553    0.3088    8.0052 H       1  LIG1        0.0618
     45 C           2.8433    1.8382    8.1843 C.ar    1  LIG1       -0.0614
     46 H           3.1897    2.1834    8.9749 H       1  LIG1        0.0618
     47 C           1.7551    2.4524    7.5825 C.ar    1  LIG1       -0.0564
     48 H           1.3717    3.2006    7.9817 H       1  LIG1        0.0621
     49 C          -0.0000    2.6121    4.1998 C.2     1  LIG1       -0.0137
     50 C           1.1914    2.7028    3.4874 C.2     1  LIG1       -0.0560
     51 H           2.0009    2.6548    3.9434 H       1  LIG1        0.0621
     52 C           1.1931    2.8624    2.1067 C.2     1  LIG1       -0.0614
     53 H           2.0009    2.9250    1.6498 H       1  LIG1        0.0618
     54 C          -0.0000    2.9299    1.4051 C.2     1  LIG1       -0.0617
     55 H          -0.0000    3.0187    0.4795 H       1  LIG1        0.0618
@<TRIPOS>BOND
     1    55    54    1
     2    54    52    2
     3    53    52    1
     4    52    50    1
     5    50    51    1
     6    50    49    2
     7    49    37    1
     8    35    34    1
     9    40    39    1
    10    16    15    1
    11    16     6    1
    12    15    28    1
    13    15    14    1
    14    28    27    2
    15    37     1    1
    16    37    38    1
    17    34    36    1
    18    34     1    1
    19    34     2    1
    20    39    38   ar
    21    39    41   ar
    22     6     2    1
    23     6     5    1
    24    42    41    1
    25    14    13    1
    26    14    25    1
    27    27    26    1
    28    38    47   ar
    29    41    43   ar
    30     2     3    1
    31     5    13    1
    32     5     4    1
    33    13    12    1
    34    25    26    1
    35    25    24    1
    36    26    33    1
    37    47    48    1
    38    47    45   ar
    39    43    44    1
    40    43    45   ar
    41     3     4    1
    42     3     7    1
    43     4    10    1
    44    12    24    1
    45    12    11    1
    46    45    46    1
    47    24    23    1
    48    33    32    1
    49     7     8    1
    50    10    11    1
    51    10     9    1
    52    11    21    1
    53    23    32    1
    54    23    22    1
    55    32    31    1
    56     8     9    1
    57     8    17    1
    58     9    20    1
    59    21    22    1
    60    21    20    1
    61    22    30    1
    62    31    30    1
    63    17    18    2
    64    20    19    1
    65    30    29    1
    66    18    19    1
    67    19    29    1
