@<TRIPOS>MOLECULE
?
 68 74 0 0 0
SMALL
GASTEIGER

@<TRIPOS>ATOM
      1 O           2.6774    1.0587   11.2364 O.2     1  LIG1       -0.2745
      2 O           7.2256    1.1107   11.3512 O.2     1  LIG1       -0.2745
      3 N           4.9462    0.9723   11.5946 N.am    1  LIG1       -0.2099
      4 C           4.9412   -1.2824   12.5031 C.ar    1  LIG1       -0.0396
      5 H           4.9146   -1.6203   11.6356 H       1  LIG1        0.0636
      6 C           4.9803   -2.1489   13.5824 C.ar    1  LIG1       -0.0571
      7 H           4.9797   -3.0670   13.4300 H       1  LIG1        0.0621
      8 C           5.0204   -1.6794   14.8663 C.ar    1  LIG1       -0.0503
      9 C           4.9969   -0.3196   15.0484 C.ar    1  LIG1       -0.0571
     10 H           5.0063    0.0192   15.9129 H       1  LIG1        0.0621
     11 C           4.9594    0.5602   13.9868 C.ar    1  LIG1       -0.0396
     12 H           4.9465    1.4776   14.1373 H       1  LIG1        0.0636
     13 C           4.9423    0.0684   12.7085 C.ar    1  LIG1        0.0439
     14 C           5.0667   -2.6313   16.0363 C.3     1  LIG1       -0.0397
     15 H           4.2571   -3.1469   16.0634 H       1  LIG1        0.0278
     16 H           5.1537   -2.1317   16.8534 H       1  LIG1        0.0278
     17 H           5.8192   -3.2193   15.9392 H       1  LIG1        0.0278
     18 C           3.7938    1.4315   10.9584 C.2     1  LIG1        0.2303
     19 C           4.2002    2.4243    9.9017 C.3     1  LIG1        0.0512
     20 H           3.8719    3.3184   10.1308 H       1  LIG1        0.0405
     21 C           5.7456    2.4025    9.9194 C.3     1  LIG1        0.0512
     22 H           6.0941    3.2971   10.1158 H       1  LIG1        0.0405
     23 C           6.1220    1.4511   11.0119 C.2     1  LIG1        0.2303
     24 C           3.8406    2.0834    8.4342 C.3     1  LIG1       -0.0215
     25 H           2.9528    2.3788    8.1445 H       1  LIG1        0.0314
     26 C           5.0220    2.7551    7.7108 C.3     1  LIG1       -0.0448
     27 H           5.0329    2.5684    6.7602 H       1  LIG1        0.0271
     28 H           5.0594    3.7126    7.8624 H       1  LIG1        0.0271
     29 C           6.1098    1.9902    8.4775 C.3     1  LIG1       -0.0215
     30 H           7.0279    2.1998    8.2085 H       1  LIG1        0.0314
     31 C           5.7004    0.5246    8.2852 C.3     1  LIG1       -0.0049
     32 H           6.0516   -0.0916    8.9609 H       1  LIG1        0.0358
     33 C           4.1361    0.5960    8.2126 C.3     1  LIG1       -0.0049
     34 H           3.6594   -0.0202    8.8066 H       1  LIG1        0.0358
     35 C           4.2322    0.1559    6.7526 C.2     1  LIG1       -0.0394
     36 C           5.6969   -0.0248    6.8629 C.2     1  LIG1       -0.0394
     37 C           3.2642    0.1635    5.8272 C.2     1  LIG1       -0.0508
     38 H           2.4002    0.2812    6.1470 H       1  LIG1        0.0626
     39 C           3.3866    0.0108    4.3770 C.ar    1  LIG1       -0.0247
     40 C           2.4173   -0.6871    3.6603 C.ar    1  LIG1       -0.0543
     41 H           1.6949   -1.0621    4.1118 H       1  LIG1        0.0624
     42 C           2.5170   -0.8293    2.2933 C.ar    1  LIG1       -0.0583
     43 H           1.8715   -1.3220    1.8396 H       1  LIG1        0.0620
     44 C           3.5545   -0.2566    1.5819 C.ar    1  LIG1       -0.0504
     45 C           4.4958    0.4746    2.2857 C.ar    1  LIG1       -0.0583
     46 H           5.1909    0.8863    1.8245 H       1  LIG1        0.0620
     47 C           4.4206    0.6036    3.6581 C.ar    1  LIG1       -0.0543
     48 H           5.0700    1.0941    4.1080 H       1  LIG1        0.0624
     49 C           3.6661   -0.4123    0.0809 C.3     1  LIG1       -0.0397
     50 H           3.0922    0.2248   -0.3499 H       1  LIG1        0.0278
     51 H           3.4017   -1.3007   -0.1693 H       1  LIG1        0.0278
     52 H           4.5746   -0.2610   -0.1919 H       1  LIG1        0.0278
     53 C           6.7277   -0.5462    6.1767 C.2     1  LIG1       -0.0508
     54 H           7.5659   -0.4442    6.5683 H       1  LIG1        0.0626
     55 C           6.7060   -1.2526    4.8957 C.ar    1  LIG1       -0.0247
     56 C           5.6587   -2.0851    4.5162 C.ar    1  LIG1       -0.0543
     57 H           4.9558   -2.2350    5.1087 H       1  LIG1        0.0624
     58 C           5.6451   -2.6934    3.2770 C.ar    1  LIG1       -0.0583
     59 H           4.9279   -3.2385    3.0434 H       1  LIG1        0.0620
     60 C           6.6739   -2.5080    2.3764 C.ar    1  LIG1       -0.0504
     61 C           7.7435   -1.7266    2.7729 C.ar    1  LIG1       -0.0583
     62 H           8.4598   -1.6097    2.1932 H       1  LIG1        0.0620
     63 C           7.7728   -1.1155    4.0109 C.ar    1  LIG1       -0.0543
     64 H           8.5116   -0.6072    4.2547 H       1  LIG1        0.0624
     65 C           6.6188   -3.1458    1.0025 C.3     1  LIG1       -0.0397
     66 H           6.6866   -4.0993    1.0910 H       1  LIG1        0.0278
     67 H           7.3480   -2.8209    0.4702 H       1  LIG1        0.0278
     68 H           5.7873   -2.9221    0.5793 H       1  LIG1        0.0278
@<TRIPOS>BOND
     1    50    49    1
     2    52    49    1
     3    51    49    1
     4    49    44    1
     5    67    65    1
     6    68    65    1
     7    65    66    1
     8    65    60    1
     9    44    45   ar
    10    44    42   ar
    11    46    45    1
    12    43    42    1
    13    62    61    1
    14    45    47   ar
    15    42    40   ar
    16    60    61   ar
    17    60    58   ar
    18    61    63   ar
    19    59    58    1
    20    58    56   ar
    21    47    48    1
    22    47    39   ar
    23    40    41    1
    24    40    39   ar
    25    63    64    1
    26    63    55   ar
    27    39    37    1
    28    56    55   ar
    29    56    57    1
    30    55    53    1
    31    37    38    1
    32    37    35    2
    33    53    54    1
    34    53    36    2
    35    35    36    1
    36    35    33    1
    37    27    26    1
    38    36    31    1
    39    26    28    1
    40    26    24    1
    41    26    29    1
    42    25    24    1
    43    30    29    1
    44    33    31    1
    45    33    24    1
    46    33    34    1
    47    31    29    1
    48    31    32    1
    49    24    19    1
    50    29    21    1
    51    19    21    1
    52    19    20    1
    53    19    18    1
    54    21    22    1
    55    21    23    1
    56    18     1    2
    57    18     3   am
    58    23     2    2
    59    23     3   am
    60     3    13    1
    61     5     4    1
    62     4    13   ar
    63     4     6   ar
    64    13    11   ar
    65     7     6    1
    66     6     8   ar
    67    11    12    1
    68    11     9   ar
    69     8     9   ar
    70     8    14    1
    71     9    10    1
    72    17    14    1
    73    14    15    1
    74    14    16    1
