@<TRIPOS>MOLECULE
1,2-dihydroxybenzene, 1,2-bis(2-pyridyl)ethylene
 52 53 0 0 0
SMALL
GASTEIGER

@<TRIPOS>ATOM
      1 C          -0.3629    2.8142   11.7313 C.ar    1  LIG1        0.0282
      2 H          -0.3857    3.7629   11.6803 H       1  LIG1        0.0830
      3 C           0.0906    2.1069   10.6361 C.ar    1  LIG1       -0.0436
      4 H           0.3623    2.5552    9.8445 H       1  LIG1        0.0633
      5 C           0.1388    0.7301   10.7228 C.ar    1  LIG1       -0.0583
      6 H           0.4601    0.2166    9.9910 H       1  LIG1        0.0619
      7 C          -0.2811    0.1024   11.8734 C.ar    1  LIG1       -0.0363
      8 H          -0.2547   -0.8454   11.9418 H       1  LIG1        0.0639
      9 C          -0.7453    0.8762   12.9363 C.ar    1  LIG1        0.0639
     10 C          -1.2472    0.3207   14.1991 C.2     1  LIG1       -0.0343
     11 H          -1.5748    0.9469   14.8349 H       1  LIG1        0.0639
     12 C          -1.2940   -0.9542   14.5515 C.2     1  LIG1       -0.0343
     13 H          -0.9666   -1.5929   13.9299 H       1  LIG1        0.0639
     14 C          -1.8125   -1.4572   15.8294 C.ar    1  LIG1        0.0639
     15 C          -2.3539   -0.6249   16.8117 C.ar    1  LIG1       -0.0363
     16 H          -2.3983    0.3144   16.6722 H       1  LIG1        0.0639
     17 C          -2.8221   -1.1741   17.9832 C.ar    1  LIG1       -0.0583
     18 H          -3.1936   -0.6172   18.6575 H       1  LIG1        0.0619
     19 C          -2.7492   -2.5479   18.1728 C.ar    1  LIG1       -0.0436
     20 H          -3.0728   -2.9501   18.9692 H       1  LIG1        0.0633
     21 C          -2.1928   -3.3049   17.1704 C.ar    1  LIG1        0.0282
     22 H          -2.1281   -4.2440   17.3000 H       1  LIG1        0.0830
     23 C          -1.8165    3.4797   16.0034 C.ar    2  LIG2        0.1582
     24 C          -3.1190    3.3743   16.4589 C.ar    2  LIG2       -0.0165
     25 H          -3.8362    3.5980   15.8778 H       2  LIG2        0.0655
     26 C          -3.3977    2.9478   17.7465 C.ar    2  LIG2       -0.0581
     27 H          -4.2966    2.8734   18.0441 H       2  LIG2        0.0619
     28 C          -2.3451    2.6285   18.5982 C.ar    2  LIG2       -0.0581
     29 H          -2.5240    2.3386   19.4849 H       2  LIG2        0.0619
     30 C          -1.0376    2.7333   18.1569 C.ar    2  LIG2       -0.0165
     31 H          -0.3242    2.5073   18.7423 H       2  LIG2        0.0655
     32 C          -0.7620    3.1627   16.8732 C.ar    2  LIG2        0.1582
     33 C           1.8370    5.7085   14.2115 C.ar    3  LIG3        0.1582
     34 C           3.1562    6.0653   13.9837 C.ar    3  LIG3       -0.0165
     35 H           3.7975    5.3961   13.7762 H       3  LIG3        0.0655
     36 C           3.5454    7.3931   14.0578 C.ar    3  LIG3       -0.0581
     37 H           4.4501    7.6350   13.8926 H       3  LIG3        0.0619
     38 C           2.6148    8.3652   14.3721 C.ar    3  LIG3       -0.0581
     39 H           2.8754    9.2778   14.4140 H       3  LIG3        0.0619
     40 C           1.3012    8.0061   14.6252 C.ar    3  LIG3       -0.0165
     41 H           0.6685    8.6740   14.8608 H       3  LIG3        0.0655
     42 C           0.9025    6.6913   14.5399 C.ar    3  LIG3        0.1582
     43 N          -0.7727    2.2263   12.8632 N.ar    1  LIG1       -0.2556
     44 N          -1.7348   -2.7908   16.0183 N.ar    1  LIG1       -0.2556
     45 O          -1.5448    3.9488   14.7339 O.3     2  LIG2       -0.5033
     46 O           0.5455    3.2622   16.4858 O.3     2  LIG2       -0.5033
     47 O           1.3837    4.4171   14.1559 O.3     3  LIG3       -0.5033
     48 O          -0.4037    6.3967   14.7910 O.3     3  LIG3       -0.5033
     49 H           0.6791    3.6019   15.6724 H       2  LIG2        0.2923
     50 H          -1.2781    3.2108   14.1354 H       2  LIG2        0.2923
     51 H          -0.5884    5.5073   14.6568 H       3  LIG3        0.2923
     52 H           1.9573    3.8779   13.6929 H       3  LIG3        0.2923
@<TRIPOS>BOND
     1     4     3    1
     2     6     5    1
     3     3     5   ar
     4     3     1   ar
     5     5     7   ar
     6     2     1    1
     7     1    43   ar
     8     7     8    1
     9     7     9   ar
    10    43     9   ar
    11     9    10    1
    12    52    47    1
    13    35    34    1
    14    37    36    1
    15    13    12    1
    16    34    36   ar
    17    34    33   ar
    18    36    38   ar
    19    50    45    1
    20    47    33    1
    21    10    12    2
    22    10    11    1
    23    33    42   ar
    24    38    39    1
    25    38    40   ar
    26    42    40   ar
    27    42    48    1
    28    12    14    1
    29    40    41    1
    30    51    48    1
    31    45    23    1
    32    49    46    1
    33    14    44   ar
    34    14    15   ar
    35    25    24    1
    36    23    24   ar
    37    23    32   ar
    38    44    21   ar
    39    24    26   ar
    40    46    32    1
    41    16    15    1
    42    15    17   ar
    43    32    30   ar
    44    21    22    1
    45    21    19   ar
    46    26    27    1
    47    26    28   ar
    48    17    19   ar
    49    17    18    1
    50    30    28   ar
    51    30    31    1
    52    19    20    1
    53    28    29    1
