@<TRIPOS>MOLECULE
?
 59 63 0 0 0
SMALL
GASTEIGER

@<TRIPOS>ATOM
      1 N           9.5650    0.1365    7.8357 N.pl3   1  LIG1        0.0000
      2 B           4.4113    1.7313    2.2961 B       1  LIG1        0.0000
      3 O           3.8681    0.4690    1.7122 O.3     1  LIG1        0.0000
      4 O           5.6304    1.3902    3.0849 O.2     1  LIG1        0.0000
      5 C           2.4141   -1.5773    0.7253 C.ar    1  LIG1        0.0000
      6 H           2.6017   -0.8372    0.1938 H       1  LIG1        0.0000
      7 C           1.5766   -2.5603    0.2505 C.ar    1  LIG1        0.0000
      8 H           1.2010   -2.4811   -0.5961 H       1  LIG1        0.0000
      9 C           1.2919   -3.6729    1.0358 C.ar    1  LIG1        0.0000
     10 H           0.7308   -4.3408    0.7151 H       1  LIG1        0.0000
     11 C           1.8463   -3.7770    2.2927 C.ar    1  LIG1        0.0000
     12 H           1.6459   -4.5149    2.8231 H       1  LIG1        0.0000
     13 C           2.6924   -2.8025    2.7743 C.ar    1  LIG1        0.0000
     14 H           3.0688   -2.8914    3.6198 H       1  LIG1        0.0000
     15 C           2.9849   -1.6772    1.9924 C.ar    1  LIG1        0.0000
     16 C           3.8559   -0.5959    2.4831 C.3     1  LIG1        0.0000
     17 C           4.6454   -0.6706    3.6028 C.2     1  LIG1        0.0000
     18 H           4.5341   -1.3682    4.2068 H       1  LIG1        0.0000
     19 C           5.6226    0.3122    3.8328 C.2     1  LIG1        0.0000
     20 C           6.6691    0.2256    4.8143 C.ar    1  LIG1        0.0000
     21 C           6.8584   -0.9146    5.6212 C.ar    1  LIG1        0.0000
     22 H           6.3190   -1.6602    5.4852 H       1  LIG1        0.0000
     23 C           7.8095   -0.9544    6.5936 C.ar    1  LIG1        0.0000
     24 H           7.9007   -1.7222    7.1104 H       1  LIG1        0.0000
     25 C           8.6592    0.1428    6.8327 C.ar    1  LIG1        0.0000
     26 C           8.4987    1.2824    5.9861 C.ar    1  LIG1        0.0000
     27 H           9.0616    2.0148    6.0949 H       1  LIG1        0.0000
     28 C           7.5379    1.3161    5.0273 C.ar    1  LIG1        0.0000
     29 H           7.4513    2.0756    4.4981 H       1  LIG1        0.0000
     30 C           9.6486   -0.9765    8.7706 C.3     1  LIG1        0.0000
     31 H           8.7778   -1.1598    9.1288 H       1  LIG1        0.0000
     32 H          10.2483   -0.7501    9.4858 H       1  LIG1        0.0000
     33 H           9.9772   -1.7544    8.3128 H       1  LIG1        0.0000
     34 C          10.4221    1.2806    8.0839 C.3     1  LIG1        0.0000
     35 H          10.9780    1.4364    7.3166 H       1  LIG1        0.0000
     36 H          10.9741    1.1053    8.8500 H       1  LIG1        0.0000
     37 H           9.8807    2.0551    8.2505 H       1  LIG1        0.0000
     38 C           3.2391    2.3981    3.2469 C.ar    1  LIG1        0.0000
     39 C           3.3556    2.7965    4.5661 C.ar    1  LIG1        0.0000
     40 C           2.3471    3.4153    5.2891 C.ar    1  LIG1        0.0000
     41 C           1.1283    3.6461    4.6794 C.ar    1  LIG1        0.0000
     42 C           0.9524    3.2704    3.3795 C.ar    1  LIG1        0.0000
     43 C           1.9871    2.6568    2.6950 C.ar    1  LIG1        0.0000
     44 C           4.8739    2.7907    1.1079 C.ar    1  LIG1        0.0000
     45 C           5.6524    3.8713    1.5057 C.ar    1  LIG1        0.0000
     46 C           6.0708    4.8087    0.5686 C.ar    1  LIG1        0.0000
     47 C           5.7110    4.6654   -0.7663 C.ar    1  LIG1        0.0000
     48 C           4.9325    3.5848   -1.1641 C.ar    1  LIG1        0.0000
     49 C           4.5139    2.6474   -0.2270 C.ar    1  LIG1        0.0000
     50 F           4.5113    2.6085    5.2472 F       1  LIG1        0.0000
     51 F           2.5365    3.7668    6.5632 F       1  LIG1        0.0000
     52 F           0.1387    4.2425    5.3617 F       1  LIG1        0.0000
     53 F          -0.2312    3.5088    2.7698 F       1  LIG1        0.0000
     54 F           1.7460    2.3298    1.4067 F       1  LIG1        0.0000
     55 F           5.9882    4.0827    2.7548 F       1  LIG1        0.0000
     56 F           6.8220    5.8471    0.9327 F       1  LIG1        0.0000
     57 F           6.1033    5.5732   -1.6780 F       1  LIG1        0.0000
     58 F           4.5815    3.4701   -2.4423 F       1  LIG1        0.0000
     59 F           3.7961    1.6458   -0.6775 F       1  LIG1        0.0000
@<TRIPOS>BOND
     1    58    48    1
     2    57    47    1
     3    48    47   ar
     4    48    49   ar
     5    47    46   ar
     6    59    49    1
     7     8     7    1
     8    49    44   ar
     9     6     5    1
    10     7     5   ar
    11     7     9   ar
    12    46    56    1
    13    46    45   ar
    14    10     9    1
    15     5    15   ar
    16     9    11   ar
    17    44    45   ar
    18    44     2    1
    19    54    43    1
    20    45    55    1
    21     3     2    1
    22     3    16    1
    23    15    16    1
    24    15    13   ar
    25    11    13   ar
    26    11    12    1
    27     2     4    1
    28     2    38    1
    29    16    17    1
    30    43    38   ar
    31    43    42   ar
    32    53    42    1
    33    13    14    1
    34     4    19    1
    35    38    39   ar
    36    42    41   ar
    37    17    19    2
    38    17    18    1
    39    19    20    1
    40    29    28    1
    41    39    50    1
    42    39    40   ar
    43    41    40   ar
    44    41    52    1
    45    20    28   ar
    46    20    21   ar
    47    28    26   ar
    48    40    51    1
    49    22    21    1
    50    21    23   ar
    51    26    27    1
    52    26    25   ar
    53    23    25   ar
    54    23    24    1
    55    25     1    1
    56    35    34    1
    57     1    34    1
    58     1    30    1
    59    34    37    1
    60    34    36    1
    61    33    30    1
    62    30    31    1
    63    30    32    1
