@<TRIPOS>MOLECULE
?
 22 23 0 0 0
SMALL
GASTEIGER

@<TRIPOS>ATOM
      1 F          -0.4140    4.1726   24.0110 F       1  LIG1       -0.1678
      2 F          -2.2869    4.0146   24.9098 F       1  LIG1       -0.1678
      3 F          -1.9213    3.0300   23.0928 F       1  LIG1       -0.1678
      4 N           2.7845   -1.0571   29.3407 N.pl3   1  LIG1        0.0564
      5 O          -1.9024    1.3211   25.5405 O.3     1  LIG1       -0.3540
      6 O           3.3150   -0.5504   30.3097 O.2     1  LIG1       -0.1261
      7 O           3.0573   -2.1759   28.9307 O.2     1  LIG1       -0.1261
      8 C          -1.0204    2.0108   26.4255 C.3     1  LIG1        0.1191
      9 H          -1.3956    2.7886   26.8879 H       1  LIG1        0.0676
     10 C          -0.9014    2.1232   24.9843 C.3     1  LIG1        0.1840
     11 H          -0.1470    1.6486   24.5773 H       1  LIG1        0.0716
     12 C          -1.3952    3.3101   24.2482 C.3     1  LIG1        0.4184
     13 C          -0.0672    1.1830   27.2057 C.ar    1  LIG1       -0.0160
     14 C           0.5087    1.6968   28.3494 C.ar    1  LIG1       -0.0539
     15 H           0.2708    2.5477   28.6408 H       1  LIG1        0.0622
     16 C           1.4300    0.9698   29.0637 C.ar    1  LIG1       -0.0311
     17 H           1.8183    1.3198   29.8329 H       1  LIG1        0.0640
     18 C           1.7656   -0.2871   28.6175 C.ar    1  LIG1        0.1262
     19 C           1.1809   -0.8388   27.5051 C.ar    1  LIG1       -0.0311
     20 H           1.4034   -1.7000   27.2342 H       1  LIG1        0.0640
     21 C           0.2679   -0.1060   26.8012 C.ar    1  LIG1       -0.0539
     22 H          -0.1335   -0.4714   26.0452 H       1  LIG1        0.0622
@<TRIPOS>BOND
     1     3    12    1
     2     1    12    1
     3    12     2    1
     4    12    10    1
     5    11    10    1
     6    10     5    1
     7    10     8    1
     8     5     8    1
     9    22    21    1
    10     8     9    1
    11     8    13    1
    12    21    13   ar
    13    21    19   ar
    14    13    14   ar
    15    20    19    1
    16    19    18   ar
    17    14    15    1
    18    14    16   ar
    19    18    16   ar
    20    18     4    1
    21     7     4    2
    22    16    17    1
    23     4     6    2
