@<TRIPOS>MOLECULE
C24 H28 N2 O2
 56 60 0 0 0
SMALL
GASTEIGER

@<TRIPOS>ATOM
      1 N           3.8275    8.5909   13.9982 N.3     1  LIG1       -0.2978
      2 C           3.2465    7.6227   14.9258 C.3     1  LIG1        0.0040
      3 H           3.3721    7.9475   15.8531 H       1  LIG1        0.0430
      4 H           3.7289    6.7622   14.8393 H       1  LIG1        0.0430
      5 C           1.7588    7.3865   14.6779 C.3     1  LIG1       -0.0063
      6 H           1.2249    8.2015   14.9035 H       1  LIG1        0.0334
      7 C           1.5288    6.9678   13.2159 C.3     1  LIG1        0.0485
      8 C           2.2942    7.8476   12.2218 C.3     1  LIG1       -0.0179
      9 H           2.2690    7.4241   11.3265 H       1  LIG1        0.0298
     10 H           1.8447    8.7272   12.1543 H       1  LIG1        0.0298
     11 C           3.7471    8.0593   12.6342 C.3     1  LIG1        0.0012
     12 H           4.2333    7.1979   12.5860 H       1  LIG1        0.0427
     13 H           4.1792    8.6918   12.0082 H       1  LIG1        0.0427
     14 N           0.0780    6.9531   12.8832 N.am    1  LIG1       -0.2885
     15 C          -0.3415    5.8069   12.3310 C.2     1  LIG1        0.2453
     16 C           0.8544    4.8880   12.1765 C.3     1  LIG1        0.1358
     17 H           1.2222    4.9928   11.2534 H       1  LIG1        0.0694
     18 C           1.8664    5.4566   13.1754 C.3     1  LIG1        0.0154
     19 H           2.8021    5.3091   12.8582 H       1  LIG1        0.0351
     20 C           1.2746    6.1748   15.4794 C.3     1  LIG1       -0.0467
     21 H           0.2922    6.2011   15.5985 H       1  LIG1        0.0269
     22 H           1.7045    6.1480   16.3710 H       1  LIG1        0.0269
     23 C           1.6918    4.9540   14.6330 C.3     1  LIG1       -0.0451
     24 H           0.9947    4.2524   14.6733 H       1  LIG1        0.0270
     25 H           2.5422    4.5749   14.9699 H       1  LIG1        0.0270
     26 C           5.2153    8.8492   14.3835 C.3     1  LIG1        0.0240
     27 H           5.7502    8.0376   14.1952 H       1  LIG1        0.0476
     28 H           5.2466    9.0073   15.3595 H       1  LIG1        0.0476
     29 C           5.8624   10.0227   13.6863 C.ar    1  LIG1       -0.0334
     30 C           5.1221   11.0497   13.1236 C.ar    1  LIG1       -0.0573
     31 H           4.1732   11.0031   13.1216 H       1  LIG1        0.0621
     32 C           5.7617   12.1460   12.5616 C.ar    1  LIG1       -0.0615
     33 H           5.2466   12.8356   12.1588 H       1  LIG1        0.0618
     34 C           7.1471   12.2438   12.5818 C.ar    1  LIG1       -0.0617
     35 H           7.5793   13.0026   12.2075 H       1  LIG1        0.0618
     36 C           7.8928   11.2260   13.1524 C.ar    1  LIG1       -0.0615
     37 H           8.8399   11.2901   13.1814 H       1  LIG1        0.0618
     38 C           7.2556   10.1131   13.6803 C.ar    1  LIG1       -0.0573
     39 H           7.7736    9.4037   14.0424 H       1  LIG1        0.0621
     40 O          -1.5007    5.5695   11.9677 O.2     1  LIG1       -0.2727
     41 O           0.5516    3.5370   12.3894 O.3     1  LIG1       -0.3822
     42 H           0.3110    3.2018   11.5766 H       1  LIG1        0.2104
     43 C          -0.7946    8.1134   12.9946 C.3     1  LIG1        0.0404
     44 H          -1.4851    8.0614   12.2871 H       1  LIG1        0.0514
     45 H          -0.2596    8.9304   12.8339 H       1  LIG1        0.0514
     46 C          -1.4832    8.2403   14.3364 C.ar    1  LIG1       -0.0301
     47 C          -2.2446    7.1971   14.8528 C.ar    1  LIG1       -0.0571
     48 H          -2.3325    6.3882   14.3634 H       1  LIG1        0.0621
     49 C          -2.8783    7.3335   16.0837 C.ar    1  LIG1       -0.0615
     50 H          -3.3834    6.6114   16.4374 H       1  LIG1        0.0618
     51 C          -2.7756    8.5155   16.7932 C.ar    1  LIG1       -0.0617
     52 H          -3.2037    8.6048   17.6372 H       1  LIG1        0.0618
     53 C          -2.0464    9.5657   16.2681 C.ar    1  LIG1       -0.0615
     54 H          -1.9917   10.3866   16.7429 H       1  LIG1        0.0618
     55 C          -1.3913    9.4266   15.0469 C.ar    1  LIG1       -0.0571
     56 H          -0.8789   10.1480   14.6999 H       1  LIG1        0.0621
@<TRIPOS>BOND
     1    17    16    1
     2     9     8    1
     3    42    41    1
     4    40    15    2
     5    13    11    1
     6    10     8    1
     7    33    32    1
     8    16    15    1
     9    16    41    1
    10    16    18    1
    11    35    34    1
    12     8    11    1
    13     8     7    1
    14    44    43    1
    15    15    14   am
    16    32    34   ar
    17    32    30   ar
    18    34    36   ar
    19    12    11    1
    20    11     1    1
    21    45    43    1
    22    19    18    1
    23    14    43    1
    24    14     7    1
    25    43    46    1
    26    31    30    1
    27    30    29   ar
    28    36    37    1
    29    36    38   ar
    30    18     7    1
    31    18    23    1
    32     7     5    1
    33    38    29   ar
    34    38    39    1
    35    29    26    1
    36     1    26    1
    37     1     2    1
    38    27    26    1
    39    46    47   ar
    40    46    55   ar
    41    48    47    1
    42    26    28    1
    43    23    24    1
    44    23    25    1
    45    23    20    1
    46     5     6    1
    47     5     2    1
    48     5    20    1
    49    56    55    1
    50     4     2    1
    51    47    49   ar
    52     2     3    1
    53    55    53   ar
    54    20    21    1
    55    20    22    1
    56    49    50    1
    57    49    51   ar
    58    53    54    1
    59    53    51   ar
    60    51    52    1
