@<TRIPOS>MOLECULE
C30 H30 N2 O4
 66 70 0 0 0
SMALL
GASTEIGER

@<TRIPOS>ATOM
      1 O           0.9701    7.2157    7.5935 O.2     1  LIG1       -0.2745
      2 O           3.0291    4.4398    8.4725 O.2     1  LIG1       -0.2745
      3 O          -0.1504    6.3439   11.0446 O.2     1  LIG1       -0.2748
      4 N           1.6883    9.3424    8.1433 N.am    1  LIG1       -0.2845
      5 H           0.9841    9.7834    7.9210 H       1  LIG1        0.1548
      6 N           1.3943    5.0325    9.9663 N.am    1  LIG1       -0.2099
      7 C           2.5597    5.2345    9.2312 C.2     1  LIG1        0.2311
      8 C           1.8303    8.0141    7.9828 C.2     1  LIG1        0.2289
      9 C           2.8336    9.9177    8.7181 C.ar    1  LIG1        0.0376
     10 C           3.7881    8.9336    8.9170 C.ar    1  LIG1       -0.0102
     11 O           5.7388   11.0728    4.8846 O.3     1  LIG1       -0.4951
     12 C           0.9562    6.1907   10.6182 C.2     1  LIG1        0.2270
     13 C          -0.2774    3.8858    8.6947 C.ar    1  LIG1       -0.0396
     14 H          -0.2460    4.6081    8.1082 H       1  LIG1        0.0636
     15 C           3.0587   11.2386    9.0674 C.ar    1  LIG1       -0.0402
     16 H           2.4131   11.8912    8.9320 H       1  LIG1        0.0636
     17 C           0.5453    3.8788    9.8094 C.ar    1  LIG1        0.0476
     18 C           2.1392    7.1207   10.6850 C.3     1  LIG1        0.0373
     19 H           2.5510    7.0876   11.5623 H       1  LIG1        0.0366
     20 H           1.8670    8.0333   10.5012 H       1  LIG1        0.0366
     21 C           5.0164    9.2547    9.4668 C.ar    1  LIG1       -0.0558
     22 H           5.6638    8.6004    9.6005 H       1  LIG1        0.0621
     23 C           0.5217    2.8319   10.7452 C.ar    1  LIG1       -0.0202
     24 C          -1.1446    2.8406    8.4391 C.ar    1  LIG1       -0.0600
     25 H          -1.6995    2.8511    7.6921 H       1  LIG1        0.0618
     26 C          -1.1621    1.7780    9.3247 C.ar    1  LIG1       -0.0614
     27 H          -1.7169    1.0504    9.1610 H       1  LIG1        0.0618
     28 C           3.1180    6.6165    9.6038 C.3     1  LIG1        0.0630
     29 H           4.0009    6.4978   10.0099 H       1  LIG1        0.0413
     30 C          -0.3682    1.7920   10.4444 C.ar    1  LIG1       -0.0563
     31 H          -0.4223    1.0731   11.0326 H       1  LIG1        0.0621
     32 C           1.4011    2.7604   12.0102 C.3     1  LIG1       -0.0109
     33 C           4.2993   11.5474    9.6322 C.ar    1  LIG1       -0.0600
     34 H           4.4773   12.4233    9.8912 H       1  LIG1        0.0618
     35 C           3.2437    7.6163    8.4274 C.3     1  LIG1        0.0892
     36 C           4.0550    7.0946    7.2041 C.3     1  LIG1       -0.0087
     37 H           4.9781    6.9602    7.4681 H       1  LIG1        0.0327
     38 H           3.6956    6.2378    6.9250 H       1  LIG1        0.0327
     39 C           4.0044    8.0647    6.0327 C.ar    1  LIG1       -0.0426
     40 C           5.2660   10.5738    9.8144 C.ar    1  LIG1       -0.0614
     41 H           6.0930   10.8059   10.1737 H       1  LIG1        0.0618
     42 C           4.8891    9.1325    5.9274 C.ar    1  LIG1       -0.0167
     43 H           5.5364    9.2529    6.5841 H       1  LIG1        0.0657
     44 C           1.0417    1.5529   12.8875 C.3     1  LIG1       -0.0560
     45 H           0.1186    1.6088   13.1449 H       1  LIG1        0.0238
     46 H           1.5930    1.5547   13.6729 H       1  LIG1        0.0238
     47 H           1.1900    0.7433   12.3929 H       1  LIG1        0.0238
     48 C           1.2354    3.9922   12.9092 C.3     1  LIG1       -0.0560
     49 H           1.6384    4.7530   12.4848 H       1  LIG1        0.0238
     50 H           1.6646    3.8317   13.7532 H       1  LIG1        0.0238
     51 H           0.3019    4.1615   13.0513 H       1  LIG1        0.0238
     52 C           3.0587    7.9129    5.0384 C.ar    1  LIG1       -0.0583
     53 H           2.4515    7.2097    5.0735 H       1  LIG1        0.0620
     54 C           4.8280   10.0329    4.8479 C.ar    1  LIG1        0.1204
     55 C           3.9085    9.8567    3.8770 C.ar    1  LIG1       -0.0199
     56 H           3.8823   10.4325    3.1467 H       1  LIG1        0.0654
     57 C           3.0186    8.8307    3.9705 C.ar    1  LIG1       -0.0580
     58 H           2.3695    8.7330    3.3121 H       1  LIG1        0.0619
     59 C           2.8720    2.6260   11.5941 C.3     1  LIG1       -0.0560
     60 H           2.9802    1.8426   11.0510 H       1  LIG1        0.0238
     61 H           3.4217    2.5527   12.3778 H       1  LIG1        0.0238
     62 H           3.1337    3.4007   11.0911 H       1  LIG1        0.0238
     63 C           5.7440   12.0046    3.8001 C.3     1  LIG1        0.0788
     64 H           5.9744   11.5474    2.9879 H       1  LIG1        0.0660
     65 H           6.3896   12.6920    3.9739 H       1  LIG1        0.0660
     66 H           4.8734   12.3972    3.7115 H       1  LIG1        0.0660
@<TRIPOS>BOND
     1    64    63    1
     2    56    55    1
     3    58    57    1
     4    66    63    1
     5    63    65    1
     6    63    11    1
     7    55    57   ar
     8    55    54   ar
     9    57    52   ar
    10    54    11    1
    11    54    42   ar
    12    52    53    1
    13    52    39   ar
    14    42    39   ar
    15    42    43    1
    16    39    36    1
    17    38    36    1
    18    36    37    1
    19    36    35    1
    20     1     8    2
    21    25    24    1
    22     5     4    1
    23     8     4   am
    24     8    35    1
    25    14    13    1
    26     4     9    1
    27    35    10    1
    28    35    28    1
    29    24    13   ar
    30    24    26   ar
    31     2     7    2
    32    13    17   ar
    33     9    10   ar
    34     9    15   ar
    35    10    21   ar
    36    16    15    1
    37    15    33   ar
    38    27    26    1
    39     7    28    1
    40     7     6   am
    41    26    30   ar
    42    21    22    1
    43    21    40   ar
    44    28    29    1
    45    28    18    1
    46    33    40   ar
    47    33    34    1
    48    17     6    1
    49    17    23   ar
    50    40    41    1
    51     6    12   am
    52    30    23   ar
    53    30    31    1
    54    20    18    1
    55    12    18    1
    56    12     3    2
    57    18    19    1
    58    23    32    1
    59    60    59    1
    60    62    59    1
    61    59    32    1
    62    59    61    1
    63    32    44    1
    64    32    48    1
    65    47    44    1
    66    49    48    1
    67    44    45    1
    68    44    46    1
    69    48    51    1
    70    48    50    1
