@<TRIPOS>MOLECULE
C15 H14 N, Br
 31 32 0 0 0
SMALL
GASTEIGER

@<TRIPOS>ATOM
      1 N           1.5678   -1.7337    1.2557 N.pl3   1  LIG1       -0.3204
      2 C           0.5216   -1.6108    2.2399 C.ar    1  LIG1        0.0302
      3 C          -0.6771   -1.0116    1.8859 C.ar    1  LIG1       -0.0406
      4 C          -1.6762   -0.8938    2.8425 C.ar    1  LIG1       -0.0600
      5 C          -1.4774   -1.3694    4.1317 C.ar    1  LIG1       -0.0616
      6 C          -0.2679   -1.9701    4.4707 C.ar    1  LIG1       -0.0600
      7 C           0.7391   -2.0930    3.5280 C.ar    1  LIG1       -0.0406
      8 C           1.3042   -2.0405    0.0195 C.3     1  LIG1        0.0715
      9 C           2.3205   -2.1253   -0.9932 C.ar    1  LIG1       -0.0218
     10 C           1.9998   -2.6239   -2.2640 C.ar    1  LIG1       -0.0565
     11 C           2.9671   -2.6519   -3.2515 C.ar    1  LIG1       -0.0614
     12 C           4.2465   -2.1691   -2.9723 C.ar    1  LIG1       -0.0615
     13 C           4.5674   -1.6626   -1.7166 C.ar    1  LIG1       -0.0582
     14 C           3.6067   -1.6389   -0.7132 C.ar    1  LIG1       -0.0409
     15 C           3.8509   -1.0159    0.6271 C.3     1  LIG1       -0.0116
     16 C           2.9823   -1.6310    1.6977 C.3     1  LIG1        0.0169
     17 BR         -1.9221   -1.9817   -1.6441 Br      2  LIG2        0.0000
     18 H          -0.8133   -0.6876    1.0028 H       1  LIG1        0.0636
     19 H          -2.5017   -0.4843    2.6133 H       1  LIG1        0.0618
     20 H          -2.1655   -1.2847    4.7821 H       1  LIG1        0.0618
     21 H          -0.1333   -2.2970    5.3524 H       1  LIG1        0.0618
     22 H           1.5667   -2.5003    3.7577 H       1  LIG1        0.0636
     23 H           0.4018   -2.2158   -0.2242 H       1  LIG1        0.0571
     24 H           1.1224   -2.9408   -2.4461 H       1  LIG1        0.0621
     25 H           2.7625   -2.9968   -4.1136 H       1  LIG1        0.0618
     26 H           4.9106   -2.1864   -3.6515 H       1  LIG1        0.0618
     27 H           5.4419   -1.3328   -1.5455 H       1  LIG1        0.0620
     28 H           3.6666   -0.0453    0.5742 H       1  LIG1        0.0328
     29 H           4.8025   -1.1323    0.8731 H       1  LIG1        0.0328
     30 H           3.3227   -2.5341    1.9172 H       1  LIG1        0.0467
     31 H           3.0310   -1.0777    2.5169 H       1  LIG1        0.0467
@<TRIPOS>BOND
     1    25    11    1
     2    26    12    1
     3    11    12   ar
     4    11    10   ar
     5    12    13   ar
     6    24    10    1
     7    10     9   ar
     8    13    27    1
     9    13    14   ar
    10     9    14   ar
    11     9     8    1
    12    14    15    1
    13    23     8    1
    14     8     1    1
    15    28    15    1
    16    15    29    1
    17    15    16    1
    18    18     3    1
    19     1    16    1
    20     1     2    1
    21    16    30    1
    22    16    31    1
    23     3     2   ar
    24     3     4   ar
    25     2     7   ar
    26    19     4    1
    27     4     5   ar
    28     7    22    1
    29     7     6   ar
    30     5     6   ar
    31     5    20    1
    32     6    21    1
