@<TRIPOS>MOLECULE
?
 136 152 0 0 0
SMALL
GASTEIGER

@<TRIPOS>ATOM
      1 S          -6.6499    7.4519   10.5867 S.3     1  LIG1        0.1476
      2 S           1.9578   17.1042   14.8391 S.3     2  LIG2        0.1476
      3 P          -4.8118    7.4189   10.0056 P.3     1  LIG1        0.2090
      4 P           0.1750   16.8683   15.5428 P.3     2  LIG2        0.2090
      5 O          -4.1387    9.9500    8.5646 O.3     1  LIG1       -0.4466
      6 O          -4.3956    5.1565    8.1379 O.3     1  LIG1       -0.4466
      7 O          -2.8083    7.1410   12.2297 O.3     1  LIG1       -0.4466
      8 O          -0.0446   17.8881   18.3435 O.3     2  LIG2       -0.4466
      9 O          -1.7951   18.3794   13.8820 O.3     2  LIG2       -0.4466
     10 O          -0.7000   14.0065   15.5682 O.3     2  LIG2       -0.4466
     11 C           1.8016    4.8755   17.1817 C.ar    1  LIG1       -0.0617
     12 H           2.2331    4.8331   18.0267 H       1  LIG1        0.0618
     13 C           1.9451    3.8403   16.2809 C.ar    1  LIG1       -0.0606
     14 H           2.4854    3.0919   16.5061 H       1  LIG1        0.0618
     15 C           1.3071    3.8827   15.0533 C.ar    1  LIG1       -0.0463
     16 H           1.4249    3.1785   14.4268 H       1  LIG1        0.0630
     17 C           0.4892    4.9756   14.7451 C.ar    1  LIG1        0.0253
     18 C          -0.3433    4.9637   13.5750 C.1     1  LIG1       -0.0609
     19 C          -1.1489    4.9247   12.6894 C.1     1  LIG1       -0.0572
     20 C          -2.1172    4.9128   11.6464 C.ar    1  LIG1        0.0717
     21 C          -2.9309    6.0243   11.3958 C.ar    1  LIG1        0.1911
     22 C          -3.8013    6.0176   10.3205 C.ar    1  LIG1        0.2037
     23 C          -3.6900    8.6564   10.5576 C.ar    1  LIG1        0.2037
     24 C          -3.5585    9.8239    9.8261 C.ar    1  LIG1        0.1911
     25 C          -2.8191   10.8964   10.3426 C.ar    1  LIG1        0.0717
     26 C          -2.7803   12.1607    9.6957 C.1     1  LIG1       -0.0572
     27 C          -2.8004   13.2519    9.1844 C.1     1  LIG1       -0.0609
     28 C          -2.8884   14.5399    8.5832 C.ar    1  LIG1        0.0253
     29 C          -2.3920   15.6735    9.2335 C.ar    1  LIG1       -0.0463
     30 H          -1.9487   15.5819   10.0682 H       1  LIG1        0.0630
     31 C          -2.5416   16.9208    8.6696 C.ar    1  LIG1       -0.0606
     32 H          -2.2099   17.6878    9.1217 H       1  LIG1        0.0618
     33 C          -3.1659   17.0616    7.4555 C.ar    1  LIG1       -0.0617
     34 H          -3.2708   17.9271    7.0779 H       1  LIG1        0.0618
     35 C          -4.2339    8.8159    7.7586 C.ar    1  LIG1        0.1759
     36 C          -4.0600    8.9483    6.3786 C.ar    1  LIG1       -0.0140
     37 H          -3.9326    9.8002    5.9790 H       1  LIG1        0.0656
     38 C          -4.0805    7.7858    5.6149 C.ar    1  LIG1       -0.0390
     39 H          -4.0173    7.8741    4.6718 H       1  LIG1        0.0632
     40 C          -4.1884    6.4978    6.1449 C.ar    1  LIG1        0.0717
     41 C          -4.3587    6.4096    7.5402 C.ar    1  LIG1        0.1911
     42 C          -3.7528    5.0061    9.3689 C.ar    1  LIG1        0.1759
     43 C          -4.4813    7.5618    8.2818 C.ar    1  LIG1        0.2037
     44 C          -2.8775    8.4120   11.6616 C.ar    1  LIG1        0.1759
     45 C           1.0318    5.9667   16.8566 C.ar    1  LIG1       -0.0606
     46 H           0.9595    6.6896   17.4679 H       1  LIG1        0.0618
     47 C           0.3660    6.0227   15.6595 C.ar    1  LIG1       -0.0463
     48 H          -0.1776    6.7744   15.4512 H       1  LIG1        0.0630
     49 C          -2.2389    3.8284   10.7625 C.ar    1  LIG1       -0.0390
     50 H          -1.7617    3.0308   10.9589 H       1  LIG1        0.0632
     51 C          -3.0239    3.8641    9.6178 C.ar    1  LIG1       -0.0140
     52 H          -3.0575    3.1225    9.0235 H       1  LIG1        0.0656
     53 C          -2.0958    9.4285   12.1798 C.ar    1  LIG1       -0.0140
     54 H          -1.5569    9.2843   12.9485 H       1  LIG1        0.0656
     55 C          -2.1193   10.6639   11.5499 C.ar    1  LIG1       -0.0390
     56 H          -1.6447   11.3852   11.9461 H       1  LIG1        0.0632
     57 C          -4.1973    5.3133    5.3440 C.1     1  LIG1       -0.0572
     58 C          -4.2847    4.2985    4.7175 C.1     1  LIG1       -0.0609
     59 C          -4.4722    3.0444    4.0554 C.ar    1  LIG1        0.0253
     60 C          -3.9594    2.8085    2.7854 C.ar    1  LIG1       -0.0463
     61 H          -3.4778    3.4907    2.3316 H       1  LIG1        0.0630
     62 C          -4.1547    1.5748    2.1809 C.ar    1  LIG1       -0.0606
     63 H          -3.7936    1.4136    1.3174 H       1  LIG1        0.0618
     64 C          -4.8631    0.5872    2.8142 C.ar    1  LIG1       -0.0617
     65 H          -4.9923   -0.2546    2.3926 H       1  LIG1        0.0618
     66 C          -5.3868    0.8213    4.0673 C.ar    1  LIG1       -0.0606
     67 H          -5.8889    0.1409    4.5024 H       1  LIG1        0.0618
     68 C          -5.1911    2.0245    4.6921 C.ar    1  LIG1       -0.0463
     69 H          -5.5458    2.1688    5.5624 H       1  LIG1        0.0630
     70 C          -3.5156   14.7028    7.3336 C.ar    1  LIG1       -0.0463
     71 H          -3.8523   13.9459    6.8679 H       1  LIG1        0.0630
     72 C          -3.6391   15.9637    6.7867 C.ar    1  LIG1       -0.0606
     73 H          -4.0550   16.0723    5.9400 H       1  LIG1        0.0618
     74 C          -2.7876    7.4142   16.5958 C.ar    2  LIG2       -0.0617
     75 H          -3.1435    6.5623   16.3706 H       2  LIG2        0.0618
     76 C          -2.1618    7.5941   17.8133 C.ar    2  LIG2       -0.0606
     77 H          -2.0775    6.8644   18.4161 H       2  LIG2        0.0618
     78 C          -1.6564    8.8431   18.1570 C.ar    2  LIG2       -0.0463
     79 H          -1.2233    8.9703   18.9935 H       2  LIG2        0.0630
     80 C          -1.7894    9.9088   17.2698 C.ar    2  LIG2        0.0253
     81 C          -1.3263   11.2375   17.5898 C.1     2  LIG2       -0.0609
     82 C          -1.0200   12.3694   17.7947 C.1     2  LIG2       -0.0572
     83 C          -0.6823   13.7525   17.9505 C.ar    2  LIG2        0.0717
     84 C          -0.4847   14.5535   16.8261 C.ar    2  LIG2        0.1911
     85 C          -0.1115   15.8839   16.9785 C.ar    2  LIG2        0.2037
     86 C          -1.0642   16.1554   14.5216 C.ar    2  LIG2        0.2037
     87 C          -1.8789   16.9938   13.7681 C.ar    2  LIG2        0.1911
     88 C          -2.8239   16.4490   12.8977 C.ar    2  LIG2        0.0717
     89 C          -3.7208   17.2958   12.1798 C.1     2  LIG2       -0.0572
     90 C          -4.5266   18.0086   11.6565 C.1     2  LIG2       -0.0609
     91 C          -5.5574   18.8401   11.0893 C.ar    2  LIG2        0.0253
     92 C          -5.9544   18.6704    9.7668 C.ar    2  LIG2       -0.0463
     93 H          -5.5371   18.0170    9.2165 H       2  LIG2        0.0630
     94 C          -6.9740   19.4697    9.2656 C.ar    2  LIG2       -0.0606
     95 H          -7.2431   19.3713    8.3597 H       2  LIG2        0.0618
     96 C          -7.5935   20.3945   10.0547 C.ar    2  LIG2       -0.0617
     97 H          -8.2952   20.9308    9.7042 H       2  LIG2        0.0618
     98 C          -0.0130   23.4457   23.4553 C.ar    2  LIG2       -0.0617
     99 H           0.1232   23.9939   24.2190 H       2  LIG2        0.0618
    100 C          -0.4324   22.1832   23.6094 C.ar    2  LIG2       -0.0606
    101 H          -0.5822   21.8506   24.4865 H       2  LIG2        0.0618
    102 C          -0.6556   21.3313   22.5054 C.ar    2  LIG2       -0.0463
    103 H          -0.9435   20.4353   22.6290 H       2  LIG2        0.0630
    104 C          -0.4410   21.8506   21.2253 C.ar    2  LIG2        0.0253
    105 C          -0.7169   21.0733   20.0552 C.1     2  LIG2       -0.0609
    106 C          -0.9535   20.4947   19.0376 C.1     2  LIG2       -0.0572
    107 C          -1.1631   19.9194   17.7388 C.ar    2  LIG2        0.0717
    108 C          -0.6372   18.6908   17.3781 C.ar    2  LIG2        0.1911
    109 C          -0.1450   16.5084   18.2197 C.ar    2  LIG2        0.1759
    110 C          -1.5491   18.9215   15.1447 C.ar    2  LIG2        0.1759
    111 C          -0.7306   18.2733   16.0540 C.ar    2  LIG2        0.2037
    112 C          -2.1409   20.1213   15.4969 C.ar    2  LIG2       -0.0140
    113 H          -2.7012   20.5880   14.8890 H       2  LIG2        0.0656
    114 C          -1.8928   20.6152   16.7601 C.ar    2  LIG2       -0.0390
    115 H          -2.2344   21.4738   16.9802 H       2  LIG2        0.0632
    116 C          -7.1996   20.5439   11.3484 C.ar    2  LIG2       -0.0606
    117 H          -7.6392   21.1853   11.8953 H       2  LIG2        0.0618
    118 C          -6.1793   19.7904   11.8851 C.ar    2  LIG2       -0.0463
    119 H          -5.9070   19.9194   12.7860 H       2  LIG2        0.0630
    120 C          -2.9256   15.0490   12.8706 C.ar    2  LIG2       -0.0390
    121 H          -3.5058   14.6553   12.2306 H       2  LIG2        0.0632
    122 C          -2.2361   14.2158   13.7190 C.ar    2  LIG2       -0.0140
    123 H          -2.3764   13.2756   13.7054 H       2  LIG2        0.0656
    124 C          -1.3240   14.7961   14.6012 C.ar    2  LIG2        0.1759
    125 C          -2.9007    8.4578   15.7069 C.ar    2  LIG2       -0.0606
    126 H          -3.3161    8.3204   14.8636 H       2  LIG2        0.0618
    127 C          -2.4109    9.7001   16.0354 C.ar    2  LIG2       -0.0463
    128 H          -2.4962   10.4196   15.4207 H       2  LIG2        0.0630
    129 C          -0.5650   14.3736   19.2069 C.ar    2  LIG2       -0.0390
    130 H          -0.6405   13.8373   19.9875 H       2  LIG2        0.0632
    131 C          -0.3420   15.7397   19.3576 C.ar    2  LIG2       -0.0140
    132 H          -0.3244   16.1368   20.2212 H       2  LIG2        0.0656
    133 C           0.0177   23.1640   21.0881 C.ar    2  LIG2       -0.0463
    134 H           0.1914   23.5136   20.2229 H       2  LIG2        0.0630
    135 C           0.2199   23.9548   22.1989 C.ar    2  LIG2       -0.0606
    136 H           0.5215   24.8509   22.0956 H       2  LIG2        0.0618
@<TRIPOS>BOND
     1    63    62    1
     2    62    60   ar
     3    62    64   ar
     4    61    60    1
     5    65    64    1
     6    60    59   ar
     7    64    66   ar
     8    59    68   ar
     9    59    58    1
    10    66    67    1
    11    66    68   ar
    12    39    38    1
    13    68    69    1
    14    58    57    3
    15    57    40    1
    16    38    40   ar
    17    38    36   ar
    18    73    72    1
    19    37    36    1
    20    40    41   ar
    21    36    35   ar
    22    72    70   ar
    23    72    33   ar
    24    71    70    1
    25    34    33    1
    26    70    28   ar
    27    33    31   ar
    28    41     6    1
    29    41    43   ar
    30    35    43   ar
    31    35     5    1
    32     6    42    1
    33    43     3    1
    34    95    94    1
    35     5    24    1
    36    28    27    1
    37    28    29   ar
    38    31    32    1
    39    31    29   ar
    40    52    51    1
    41    27    26    3
    42    93    92    1
    43    29    30    1
    44    94    92   ar
    45    94    96   ar
    46    42    51   ar
    47    42    22   ar
    48    51    49   ar
    49    26    25    1
    50    97    96    1
    51    92    91   ar
    52    24    25   ar
    53    24    23   ar
    54     3    22    1
    55     3    23    1
    56     3     1    1
    57    96   116   ar
    58    22    21   ar
    59    25    55   ar
    60    23    44   ar
    61    49    50    1
    62    49    20   ar
    63    91    90    1
    64    91   118   ar
    65   116   118   ar
    66   116   117    1
    67    21    20   ar
    68    21     7    1
    69    55    56    1
    70    55    53   ar
    71    20    19    1
    72    90    89    3
    73    44    53   ar
    74    44     7    1
    75   118   119    1
    76    53    54    1
    77    89    88    1
    78   121   120    1
    79    19    18    3
    80   120    88   ar
    81   120   122   ar
    82    88    87   ar
    83    18    17    1
    84   123   122    1
    85   122   124   ar
    86    87     9    1
    87    87    86   ar
    88     9   110    1
    89    16    15    1
    90    86   124   ar
    91    86     4    1
    92   124    10    1
    93    17    15   ar
    94    17    47   ar
    95     2     4    1
    96   126   125    1
    97   113   112    1
    98    15    13   ar
    99   110   112   ar
   100   110   111   ar
   101   128   127    1
   102    48    47    1
   103   112   114   ar
   104     4   111    1
   105     4    85    1
   106    10    84    1
   107    47    45   ar
   108   125   127   ar
   109   125    74   ar
   110   127    80   ar
   111   111   108   ar
   112    13    14    1
   113    13    11   ar
   114    75    74    1
   115    74    76   ar
   116   114   115    1
   117   114   107   ar
   118    84    85   ar
   119    84    83   ar
   120    45    11   ar
   121    45    46    1
   122    85   109   ar
   123    11    12    1
   124    80    81    1
   125    80    78   ar
   126   108   107   ar
   127   108     8    1
   128    81    82    3
   129   107   106    1
   130    82    83    1
   131    76    78   ar
   132    76    77    1
   133    83   129   ar
   134    78    79    1
   135   109     8    1
   136   109   131   ar
   137   106   105    3
   138   129   131   ar
   139   129   130    1
   140   131   132    1
   141   105   104    1
   142   134   133    1
   143   133   104   ar
   144   133   135   ar
   145   104   102   ar
   146   136   135    1
   147   135    98   ar
   148   102   103    1
   149   102   100   ar
   150    98   100   ar
   151    98    99    1
   152   100   101    1
