@<TRIPOS>MOLECULE
?
 54 57 0 0 0
SMALL
GASTEIGER

@<TRIPOS>ATOM
      1 BR          3.0504    3.2973   -1.9728 Br      1  LIG1       -0.0503
      2 O           5.5873    5.3203    6.2449 O.2     1  LIG1       -0.2475
      3 O           6.0823    7.3564    5.4891 O.3     1  LIG1       -0.4659
      4 O           6.1688    6.5188    2.9157 O.3     1  LIG1       -0.3549
      5 O           5.4666    2.5252    6.7758 O.3     1  LIG1       -0.5049
      6 H           5.4933    3.2734    6.4422 H       1  LIG1        0.2922
      7 O           8.3668    2.7671    4.6213 O.2     1  LIG1       -0.2751
      8 N           6.1692    3.1919    4.1520 N.am    1  LIG1       -0.2573
      9 C           5.3865    1.5913    5.7893 C.ar    1  LIG1        0.1382
     10 C           5.0185    0.3027    6.1364 C.ar    1  LIG1       -0.0183
     11 H           4.8537    0.0880    7.0262 H       1  LIG1        0.0655
     12 C           4.8972   -0.6547    5.1673 C.ar    1  LIG1       -0.0582
     13 H           4.6656   -1.5221    5.4064 H       1  LIG1        0.0619
     14 C           5.1155   -0.3510    3.8419 C.ar    1  LIG1       -0.0598
     15 H           4.9947   -1.0004    3.1878 H       1  LIG1        0.0618
     16 C           5.5137    0.9210    3.4890 C.ar    1  LIG1       -0.0367
     17 H           5.6741    1.1288    2.5969 H       1  LIG1        0.0637
     18 C           5.6750    1.8833    4.4592 C.ar    1  LIG1        0.0786
     19 C           4.7878    4.0519    2.2854 C.ar    1  LIG1       -0.0233
     20 C           5.6344    3.8631    1.2059 C.ar    1  LIG1       -0.0556
     21 H           6.5551    3.8970    1.3358 H       1  LIG1        0.0621
     22 C           5.1361    3.6254   -0.0563 C.ar    1  LIG1       -0.0474
     23 H           5.7137    3.5034   -0.7748 H       1  LIG1        0.0629
     24 C           3.7725    3.5688   -0.2426 C.ar    1  LIG1        0.0179
     25 C           2.9064    3.7328    0.8196 C.ar    1  LIG1       -0.0474
     26 H           1.9862    3.6870    0.6874 H       1  LIG1        0.0629
     27 C           3.4181    3.9653    2.0842 C.ar    1  LIG1       -0.0556
     28 H           2.8399    4.0648    2.8061 H       1  LIG1        0.0621
     29 C           4.5205    7.4364    0.2862 C.ar    1  LIG1       -0.0564
     30 H           4.0709    6.6255    0.3472 H       1  LIG1        0.0621
     31 C           4.6216    8.0537   -0.9323 C.ar    1  LIG1       -0.0614
     32 H           4.2358    7.6657   -1.6853 H       1  LIG1        0.0618
     33 C           5.2702    9.2050   -1.0346 C.ar    1  LIG1       -0.0617
     34 H           5.3297    9.6193   -1.8646 H       1  LIG1        0.0618
     35 C           5.8628    9.8080    0.0644 C.ar    1  LIG1       -0.0614
     36 H           6.3249   10.6101   -0.0253 H       1  LIG1        0.0618
     37 C           5.7498    9.1704    1.3358 C.ar    1  LIG1       -0.0564
     38 H           6.1338    9.5541    2.0911 H       1  LIG1        0.0621
     39 C           5.0699    7.9875    1.4301 C.ar    1  LIG1       -0.0219
     40 C           4.9506    7.2650    2.7314 C.3     1  LIG1        0.0742
     41 H           4.8290    7.8966    3.4579 H       1  LIG1        0.0610
     42 H           4.1874    6.6646    2.7141 H       1  LIG1        0.0610
     43 C           6.2010    5.5465    3.9281 C.3     1  LIG1        0.1966
     44 C           7.6260    4.9849    3.9545 C.3     1  LIG1        0.0662
     45 H           8.0526    5.0968    3.0912 H       1  LIG1        0.0393
     46 H           8.1578    5.4366    4.6270 H       1  LIG1        0.0393
     47 C           7.4804    3.5264    4.2868 C.2     1  LIG1        0.2239
     48 C           5.2891    4.2779    3.6947 C.3     1  LIG1        0.0960
     49 H           4.5184    4.3317    4.2971 H       1  LIG1        0.0589
     50 C           5.9027    6.0607    5.3455 C.2     1  LIG1        0.3419
     51 C           5.9248    7.8703    6.8365 C.3     1  LIG1        0.0818
     52 H           6.0734    8.8193    6.8365 H       1  LIG1        0.0661
     53 H           6.5615    7.4477    7.4171 H       1  LIG1        0.0661
     54 H           5.0349    7.6856    7.1469 H       1  LIG1        0.0661
@<TRIPOS>BOND
     1     1    24    1
     2    34    33    1
     3    32    31    1
     4    33    31   ar
     5    33    35   ar
     6    31    29   ar
     7    23    22    1
     8    24    22   ar
     9    24    25   ar
    10    22    20   ar
    11    36    35    1
    12    35    37   ar
    13    29    30    1
    14    29    39   ar
    15    26    25    1
    16    25    27   ar
    17    20    21    1
    18    20    19   ar
    19    37    39   ar
    20    37    38    1
    21    39    40    1
    22    27    19   ar
    23    27    28    1
    24    19    48    1
    25    17    16    1
    26    42    40    1
    27    40     4    1
    28    40    41    1
    29     4    43    1
    30    45    44    1
    31    15    14    1
    32    16    14   ar
    33    16    18   ar
    34    48    43    1
    35    48     8    1
    36    48    49    1
    37    14    12   ar
    38    43    44    1
    39    43    50    1
    40    44    47    1
    41    44    46    1
    42     8    47   am
    43     8    18    1
    44    47     7    2
    45    18     9   ar
    46    12    13    1
    47    12    10   ar
    48    50     3    1
    49    50     2    2
    50     3    51    1
    51     9    10   ar
    52     9     5    1
    53    10    11    1
    54     6     5    1
    55    51    52    1
    56    51    54    1
    57    51    53    1
