@<TRIPOS>MOLECULE
C23 H27 N O6 S
 58 60 0 0 0
SMALL
GASTEIGER

@<TRIPOS>ATOM
      1 S           4.6651    7.8518    4.6606 S.O2    1  LIG1        0.0724
      2 O           4.9544    8.2856    3.3276 O.2     1  LIG1       -0.1500
      3 O           3.4570    7.1206    4.9222 O.2     1  LIG1       -0.1500
      4 O           5.7151   11.5906    5.5414 O.2     1  LIG1       -0.2916
      5 O           7.0729   14.8580    6.5487 O.3     1  LIG1       -0.3753
      6 O           8.7585   12.2307   10.1221 O.2     1  LIG1       -0.2508
      7 O           7.8116   11.2148    8.3683 O.3     1  LIG1       -0.4648
      8 N           4.6574    9.2352    5.5251 N.pl3   1  LIG1       -0.2156
      9 H           4.8979    9.9556    5.0822 H       1  LIG1        0.1737
     10 C           4.3216    9.4439    6.8772 C.ar    1  LIG1        0.0585
     11 C           3.6781    8.4688    7.6427 C.ar    1  LIG1       -0.0384
     12 H           3.4650    7.6293    7.2544 H       1  LIG1        0.0637
     13 C           3.3496    8.7201    8.9688 C.ar    1  LIG1       -0.0570
     14 H           2.9224    8.0401    9.4771 H       1  LIG1        0.0621
     15 C           3.6288    9.9442    9.5708 C.ar    1  LIG1       -0.0497
     16 C           4.2709   10.9063    8.8035 C.ar    1  LIG1       -0.0465
     17 H           4.4691   11.7451    9.2014 H       1  LIG1        0.0628
     18 C           4.6397   10.6933    7.4680 C.ar    1  LIG1        0.0403
     19 C           3.2644   10.2318   11.0126 C.3     1  LIG1       -0.0397
     20 H           2.8210    9.4490   11.3999 H       1  LIG1        0.0278
     21 H           4.0779   10.4319   11.5220 H       1  LIG1        0.0278
     22 H           2.6596   11.0015   11.0494 H       1  LIG1        0.0278
     23 C           6.0212    6.9054    5.2644 C.ar    1  LIG1        0.1085
     24 C           7.3158    7.3145    4.9422 C.ar    1  LIG1       -0.0348
     25 H           7.4579    8.0602    4.3697 H       1  LIG1        0.0637
     26 C           8.3896    6.6160    5.4716 C.ar    1  LIG1       -0.0570
     27 H           9.2749    6.8807    5.2506 H       1  LIG1        0.0621
     28 C           8.1903    5.5305    6.3230 C.ar    1  LIG1       -0.0503
     29 C           6.8933    5.1290    6.6082 C.ar    1  LIG1       -0.0570
     30 H           6.7491    4.3754    7.1681 H       1  LIG1        0.0621
     31 C           5.8013    5.8123    6.0883 C.ar    1  LIG1       -0.0348
     32 H           4.9167    5.5348    6.2935 H       1  LIG1        0.0637
     33 C           9.3720    4.8394    6.9597 C.3     1  LIG1       -0.0397
     34 H          10.2017    5.2525    6.6440 H       1  LIG1        0.0278
     35 H           9.3144    4.9249    7.9342 H       1  LIG1        0.0278
     36 H           9.3662    3.8915    6.7145 H       1  LIG1        0.0278
     37 C           5.3817   11.7463    6.7218 C.2     1  LIG1        0.1706
     38 C           5.6949   13.0892    7.3575 C.3     1  LIG1        0.0509
     39 H           5.5149   13.0733    8.3405 H       1  LIG1        0.0407
     40 C           4.8472   14.1762    6.6534 C.3     1  LIG1       -0.0172
     41 H           4.1301   13.7715    6.1041 H       1  LIG1        0.0295
     42 H           4.4402   14.7947    7.3112 H       1  LIG1        0.0295
     43 C           5.8675   14.8935    5.7831 C.3     1  LIG1        0.0488
     44 H           5.9842   14.4268    4.9190 H       1  LIG1        0.0560
     45 H           5.5875   15.8281    5.6084 H       1  LIG1        0.0560
     46 C           7.1638   13.5164    7.0618 C.3     1  LIG1        0.0786
     47 H           7.5615   12.9145    6.3703 H       1  LIG1        0.0608
     48 C           8.0686   13.5824    8.2710 C.3     1  LIG1        0.0718
     49 H           7.7014   14.2554    8.8972 H       1  LIG1        0.0403
     50 H           8.9572   13.9050    7.9763 H       1  LIG1        0.0403
     51 C           8.2615   12.2824    9.0288 C.2     1  LIG1        0.3096
     52 C           7.8823    9.9279    9.0688 C.3     1  LIG1        0.0896
     53 H           7.1171    9.8346    9.6897 H       1  LIG1        0.0694
     54 H           8.7200    9.8699    9.5929 H       1  LIG1        0.0694
     55 C           7.8443    8.8534    8.0426 C.3     1  LIG1       -0.0306
     56 H           7.8908    7.9796    8.4836 H       1  LIG1        0.0262
     57 H           7.0103    8.9172    7.5322 H       1  LIG1        0.0262
     58 H           8.6074    8.9550    7.4364 H       1  LIG1        0.0262
@<TRIPOS>BOND
     1     2     1    2
     2    25    24    1
     3     1     3    2
     4     1    23    1
     5     1     8    1
     6    44    43    1
     7    24    23   ar
     8    24    26   ar
     9     9     8    1
    10    27    26    1
    11    23    31   ar
    12    26    28   ar
    13     8    10    1
    14     4    37    2
    15    45    43    1
    16    43     5    1
    17    43    40    1
    18    31    32    1
    19    31    29   ar
    20    41    40    1
    21    28    29   ar
    22    28    33    1
    23    47    46    1
    24     5    46    1
    25    29    30    1
    26    34    33    1
    27    40    42    1
    28    40    38    1
    29    36    33    1
    30    37    38    1
    31    37    18    1
    32    10    18   ar
    33    10    11   ar
    34    33    35    1
    35    46    38    1
    36    46    48    1
    37    12    11    1
    38    38    39    1
    39    58    55    1
    40    18    16   ar
    41    57    55    1
    42    11    13   ar
    43    50    48    1
    44    55    56    1
    45    55    52    1
    46    48    49    1
    47    48    51    1
    48     7    51    1
    49     7    52    1
    50    16    17    1
    51    16    15   ar
    52    13    14    1
    53    13    15   ar
    54    51     6    2
    55    52    54    1
    56    52    53    1
    57    15    19    1
    58    19    22    1
    59    19    20    1
    60    19    21    1
