@<TRIPOS>MOLECULE
?
 43 45 0 0 0
SMALL
GASTEIGER

@<TRIPOS>ATOM
      1 CL          4.9305   13.9346    9.6269 Cl      1  LIG1       -0.0870
      2 CL          6.6072   16.1877    9.1267 Cl      1  LIG1       -0.0870
      3 CL          6.7838   13.8727    7.4291 Cl      1  LIG1       -0.0870
      4 F           5.0766   -0.6386    1.3396 F       2  LIG2       -0.2020
      5 F           8.1853   -2.3910    4.3995 F       2  LIG2       -0.2020
      6 F           6.5204   -1.6547   -0.7083 F       2  LIG2       -0.1993
      7 F           8.7870   -3.0343   -0.2032 F       2  LIG2       -0.1993
      8 O           5.2596    0.8562    5.5344 O.2     2  LIG2       -0.4622
      9 O           3.8167   -1.7225    5.4501 O.2     2  LIG2       -0.4552
     10 F           9.6524   -3.3485    2.3416 F       2  LIG2       -0.1993
     11 C           4.7309   -1.9689    4.4377 C.ar    2  LIG2        0.1256
     12 C           5.7147   -1.0030    4.0518 C.3     2  LIG2        0.1399
     13 C           5.8602    2.0965    5.7578 C.ar    2  LIG2        0.1184
     14 C           3.0460   -2.8763    5.5547 C.ar    2  LIG2        0.1701
     15 C           6.5815   -1.4872    2.9273 C.ar    2  LIG2        0.0514
     16 C           6.2354    4.2413    6.8664 C.ar    2  LIG2       -0.0313
     17 C           6.1958   -1.3161    1.6092 C.ar    2  LIG2        0.1688
     18 C           5.9817    0.2367    4.5205 C.ar    2  LIG2        0.1250
     19 C           6.9244   -1.8289    0.5505 C.ar    2  LIG2        0.1967
     20 C           5.4363    2.9866    6.6938 C.3     2  LIG2        0.0889
     21 C           4.5370   -3.2254    3.9340 C.ar    2  LIG2       -0.0186
     22 H           5.0193   -3.6232    3.2463 H       2  LIG2        0.0652
     23 C           7.0377    1.1063    4.1192 C.ar    2  LIG2       -0.0190
     24 H           7.6618    0.9335    3.4519 H       2  LIG2        0.0652
     25 C           3.4711   -3.8045    4.6502 C.ar    2  LIG2       -0.0125
     26 H           3.1228   -4.6580    4.5287 H       2  LIG2        0.0656
     27 C           7.0388    4.3694    7.9966 C.ar    2  LIG2       -0.0575
     28 H           7.0925    3.6684    8.6053 H       2  LIG2        0.0621
     29 C           8.0856   -2.5257    0.8112 C.ar    2  LIG2        0.1991
     30 C           6.9766    2.2249    4.8732 C.ar    2  LIG2       -0.0194
     31 H           7.5569    2.9500    4.8252 H       2  LIG2        0.0652
     32 C           7.7604    5.5327    8.2242 C.ar    2  LIG2       -0.0615
     33 H           8.2990    5.6086    8.9783 H       2  LIG2        0.0618
     34 C           7.7583   -2.1811    3.1523 C.ar    2  LIG2        0.1688
     35 C           6.1796    5.2893    5.9499 C.ar    2  LIG2       -0.0575
     36 H           5.6653    5.2065    5.1798 H       2  LIG2        0.0621
     37 C           8.5135   -2.6882    2.1002 C.ar    2  LIG2        0.1967
     38 C           7.6754    6.5840    7.3202 C.ar    2  LIG2       -0.0617
     39 H           8.1443    7.3711    7.4771 H       2  LIG2        0.0618
     40 C           6.8928    6.4604    6.1873 C.ar    2  LIG2       -0.0615
     41 H           6.8429    7.1639    5.5804 H       2  LIG2        0.0618
     42 C           5.7090   14.8772    8.3691 C.3     1  LIG1        0.1805
     43 H           5.0236   15.2550    7.7789 H       1  LIG1        0.0806
@<TRIPOS>BOND
     1     6    19    1
     2     7    29    1
     3    19    29   ar
     4    19    17   ar
     5    29    37   ar
     6     4    17    1
     7    17    15   ar
     8    37    10    1
     9    37    34   ar
    10    15    34   ar
    11    15    12    1
    12    34     5    1
    13    22    21    1
    14    24    23    1
    15    21    11   ar
    16    21    25   ar
    17    12    11    1
    18    12    18    1
    19    23    18   ar
    20    23    30   ar
    21    11     9   ar
    22    18     8   ar
    23    26    25    1
    24    25    14   ar
    25    31    30    1
    26    30    13   ar
    27    36    35    1
    28     9    14   ar
    29     8    13   ar
    30    41    40    1
    31    13    20    1
    32    35    40   ar
    33    35    16   ar
    34    40    38   ar
    35    20    16    1
    36    16    27   ar
    37    38    39    1
    38    38    32   ar
    39     3    42    1
    40    43    42    1
    41    27    32   ar
    42    27    28    1
    43    32    33    1
    44    42     2    1
    45    42     1    1
