@<TRIPOS>MOLECULE
5-methyl-2-((2-nitrophenyl)amino)-3-thiophenecarbonitrile
 27 28 0 0 0
SMALL
GASTEIGER

@<TRIPOS>ATOM
      1 S           6.5658    5.3508    0.9150 S.2     1  LIG1       -0.0775
      2 C           8.1675    4.7499    0.6722 C.ar    1  LIG1       -0.0102
      3 C           8.6462    4.1551    1.7654 C.ar    1  LIG1       -0.0325
      4 C           7.7215    4.1775    2.8595 C.ar    1  LIG1        0.0804
      5 C           6.5529    4.8046    2.5429 C.ar    1  LIG1        0.0875
      6 C           5.3601    5.5902    4.5358 C.ar    1  LIG1        0.0623
      7 C           6.5111    6.0839    5.1325 C.ar    1  LIG1       -0.0383
      8 C           6.4834    6.7461    6.3327 C.ar    1  LIG1       -0.0599
      9 C           5.2614    6.9705    6.9845 C.ar    1  LIG1       -0.0595
     10 C           4.1290    6.4879    6.4413 C.ar    1  LIG1       -0.0296
     11 C           4.1525    5.8076    5.2293 C.ar    1  LIG1        0.1472
     12 C           7.9080    3.5547    4.1080 C.1     1  LIG1        0.1016
     13 C           8.7881    5.0164   -0.6671 C.3     1  LIG1       -0.0333
     14 N           5.3934    4.9940    3.3017 N.pl3   1  LIG1       -0.3063
     15 N           2.8904    5.3699    4.6996 N.pl3   1  LIG1        0.0583
     16 N           7.9780    3.0371    5.1333 N.1     1  LIG1       -0.1908
     17 O           1.8555    5.7641    5.2445 O.2     1  LIG1       -0.1261
     18 O           2.8521    4.6405    3.7066 O.2     1  LIG1       -0.1261
     19 H           9.4836    3.7665    1.8257 H       1  LIG1        0.0639
     20 H           4.6688    4.7176    2.9605 H       1  LIG1        0.1527
     21 H           7.3207    5.9717    4.6852 H       1  LIG1        0.0637
     22 H           7.2822    7.0645    6.6968 H       1  LIG1        0.0618
     23 H           5.2424    7.4573    7.7832 H       1  LIG1        0.0618
     24 H           3.3184    6.6086    6.8793 H       1  LIG1        0.0641
     25 H           9.6795    4.6489   -0.7087 H       1  LIG1        0.0283
     26 H           8.8143    5.9549   -0.8471 H       1  LIG1        0.0283
     27 H           8.2581    4.5829   -1.3495 H       1  LIG1        0.0283
@<TRIPOS>BOND
     1    27    13    1
     2    26    13    1
     3    25    13    1
     4    13     2    1
     5     2     1   ar
     6     2     3   ar
     7     1     5   ar
     8     3    19    1
     9     3     4   ar
    10     5     4   ar
    11     5    14    1
    12     4    12    1
    13    20    14    1
    14    14     6    1
    15    18    15    2
    16    12    16    3
    17     6     7   ar
    18     6    11   ar
    19    21     7    1
    20    15    11    1
    21    15    17    2
    22     7     8   ar
    23    11    10   ar
    24     8    22    1
    25     8     9   ar
    26    10    24    1
    27    10     9   ar
    28     9    23    1
