@<TRIPOS>MOLECULE
trichloromesitylene
 21 21 0 0 0
SMALL
GASTEIGER

@<TRIPOS>ATOM
      1 CL          3.6660   -2.6351    5.2227 Cl      1  LIG1       -0.0829
      2 CL          1.6723   -0.8570    9.9023 Cl      1  LIG1       -0.0829
      3 CL          2.7257    2.6179    5.9255 Cl      1  LIG1       -0.0829
      4 C           2.6685   -1.6192    7.5178 C.ar    1  LIG1       -0.0132
      5 C           2.2346    0.7807    7.8347 C.ar    1  LIG1       -0.0132
      6 C           2.6959    0.9808    6.5307 C.ar    1  LIG1        0.0496
      7 C           3.1371   -0.0377    5.6893 C.ar    1  LIG1       -0.0132
      8 C           3.1112   -1.3208    6.2278 C.ar    1  LIG1        0.0496
      9 C           2.6585   -3.0344    8.0548 C.3     1  LIG1       -0.0369
     10 H           3.1880   -3.6036    7.4750 H       1  LIG1        0.0278
     11 H           1.7458   -3.3629    8.0843 H       1  LIG1        0.0278
     12 H           3.0345   -3.0439    8.9487 H       1  LIG1        0.0278
     13 C           1.7672    1.9289    8.6991 C.3     1  LIG1       -0.0369
     14 H           2.5284    2.4739    8.9522 H       1  LIG1        0.0278
     15 H           1.3401    1.5793    9.4970 H       1  LIG1        0.0278
     16 H           1.1327    2.4697    8.2035 H       1  LIG1        0.0278
     17 C           2.2388   -0.5368    8.2778 C.ar    1  LIG1        0.0496
     18 C           3.6089    0.2344    4.2802 C.3     1  LIG1       -0.0369
     19 H           2.9815    0.8283    3.8385 H       1  LIG1        0.0278
     20 H           3.6633   -0.6008    3.7908 H       1  LIG1        0.0278
     21 H           4.4842    0.6518    4.3075 H       1  LIG1        0.0278
@<TRIPOS>BOND
     1    20    18    1
     2    19    18    1
     3    18    21    1
     4    18     7    1
     5     1     8    1
     6     7     8   ar
     7     7     6   ar
     8     3     6    1
     9     8     4   ar
    10     6     5   ar
    11    10     9    1
    12     4     9    1
    13     4    17   ar
    14     5    17   ar
    15     5    13    1
    16     9    11    1
    17     9    12    1
    18    16    13    1
    19    17     2    1
    20    13    14    1
    21    13    15    1
