@<TRIPOS>MOLECULE
?
 61 66 0 0 0
SMALL
GASTEIGER

@<TRIPOS>ATOM
      1 BR          3.3064   10.3144   16.1732 Br      1  LIG1       -0.0503
      2 N          -1.3460   15.3221   15.4418 N.am    1  LIG1       -0.2649
      3 O           0.2195   16.5346   16.6174 O.2     1  LIG1       -0.2728
      4 N          -2.0298   16.2889   18.6136 N.3     1  LIG1       -0.2901
      5 H          -2.7700   16.6973   18.4573 H       1  LIG1        0.1239
      6 C           2.1264   11.5882   16.9531 C.ar    1  LIG1        0.0179
      7 C          -0.5449   14.4277   18.7543 C.3     1  LIG1        0.0440
      8 H          -1.1104   13.9120   19.3656 H       1  LIG1        0.0398
      9 N           0.6176   15.1473   20.8629 N.pl3   1  LIG1        0.0280
     10 C          -2.4064   14.4492   15.7538 C.ar    1  LIG1        0.0421
     11 C          -3.2259   13.7580   14.8959 C.ar    1  LIG1       -0.0399
     12 H          -3.1391   13.8462   13.9743 H       1  LIG1        0.0636
     13 C          -2.5442   14.3465   17.1248 C.ar    1  LIG1        0.0036
     14 C           0.4179   13.4531   18.1112 C.ar    1  LIG1       -0.0394
     15 C          -0.7446   15.7841   16.5745 C.2     1  LIG1        0.2455
     16 C          -1.1343   16.5985   19.7448 C.3     1  LIG1        0.0619
     17 H          -0.7793   17.5028   19.6176 H       1  LIG1        0.0533
     18 C          -4.1952   12.9208   15.4506 C.ar    1  LIG1       -0.0600
     19 H          -4.7640   12.4430   14.8915 H       1  LIG1        0.0618
     20 C           0.8206   13.7803   14.1249 C.ar    1  LIG1       -0.0571
     21 H           0.9541   13.9462   15.0298 H       1  LIG1        0.0621
     22 O           1.4067   15.9101   21.3870 O.2     1  LIG1       -0.1314
     23 C           0.0380   15.5795   19.5510 C.3     1  LIG1        0.1386
     24 H           0.7424   16.0062   19.0197 H       1  LIG1        0.0620
     25 C          -0.1379   14.4969   13.4321 C.ar    1  LIG1       -0.0297
     26 C          -3.3724   15.5982   22.6886 C.ar    1  LIG1       -0.0615
     27 H          -4.0497   14.9913   22.8818 H       1  LIG1        0.0618
     28 C          -1.4990   15.2006   17.7901 C.3     1  LIG1        0.1333
     29 C          -1.8029   16.5373   21.1103 C.ar    1  LIG1       -0.0282
     30 C          -3.4929   13.5158   17.6689 C.ar    1  LIG1       -0.0545
     31 H          -3.5808   13.4394   18.5921 H       1  LIG1        0.0622
     32 C          -0.8933   15.6284   14.0928 C.3     1  LIG1        0.0449
     33 H          -0.3202   16.4103   14.1251 H       1  LIG1        0.0518
     34 H          -1.6640   15.8496   13.5467 H       1  LIG1        0.0518
     35 C           1.7432   13.7632   17.8428 C.ar    1  LIG1       -0.0571
     36 H           2.0677   14.6083   18.0564 H       1  LIG1        0.0621
     37 C          -0.0250   12.1812   17.7754 C.ar    1  LIG1       -0.0571
     38 H          -0.9107   11.9546   17.9464 H       1  LIG1        0.0621
     39 C           1.3839   12.5364   12.1661 C.ar    1  LIG1       -0.0617
     40 H           1.8876   11.8783   11.7443 H       1  LIG1        0.0618
     41 C           1.5869   12.8168   13.4850 C.ar    1  LIG1       -0.0615
     42 H           2.2436   12.3587   13.9583 H       1  LIG1        0.0618
     43 C          -4.3189   12.7905   16.8160 C.ar    1  LIG1       -0.0613
     44 H          -4.9582   12.2139   17.1694 H       1  LIG1        0.0618
     45 C          -0.3278   14.2002   12.0915 C.ar    1  LIG1       -0.0571
     46 H          -0.9758   14.6570   11.6059 H       1  LIG1        0.0621
     47 C          -2.8058   15.6429   21.4188 C.ar    1  LIG1       -0.0570
     48 H          -3.1098   15.0572   20.7636 H       1  LIG1        0.0621
     49 C           2.5920   12.8339   17.2630 C.ar    1  LIG1       -0.0475
     50 H           3.4777   13.0577   17.0860 H       1  LIG1        0.0629
     51 O           0.2529   14.0941   21.3446 O.2     1  LIG1       -0.1314
     52 C          -1.9375   17.3804   23.3603 C.ar    1  LIG1       -0.0615
     53 H          -1.6423   17.9754   24.0119 H       1  LIG1        0.0618
     54 C          -1.3828   17.4173   22.0814 C.ar    1  LIG1       -0.0570
     55 H          -0.7240   18.0425   21.8830 H       1  LIG1        0.0621
     56 C           0.8043   11.2412   17.1970 C.ar    1  LIG1       -0.0475
     57 H           0.4852   10.3961   16.9760 H       1  LIG1        0.0629
     58 C          -2.9122   16.4722   23.6590 C.ar    1  LIG1       -0.0617
     59 H          -3.2682   16.4406   24.5175 H       1  LIG1        0.0618
     60 C           0.4374   13.2301   11.4697 C.ar    1  LIG1       -0.0615
     61 H           0.3061   13.0485   10.5663 H       1  LIG1        0.0618
@<TRIPOS>BOND
     1    61    60    1
     2    60    45   ar
     3    60    39   ar
     4    46    45    1
     5    40    39    1
     6    45    25   ar
     7    39    41   ar
     8    25    32    1
     9    25    20   ar
    10    41    42    1
    11    41    20   ar
    12    34    32    1
    13    12    11    1
    14    32    33    1
    15    32     2    1
    16    20    21    1
    17    19    18    1
    18    11    18   ar
    19    11    10   ar
    20     2    10    1
    21     2    15   am
    22    18    43   ar
    23    10    13   ar
    24     1     6    1
    25    15     3    2
    26    15    28    1
    27    43    44    1
    28    43    30   ar
    29     6    56   ar
    30     6    49   ar
    31    57    56    1
    32    50    49    1
    33    13    30   ar
    34    13    28    1
    35    56    37   ar
    36    49    35   ar
    37    30    31    1
    38    37    38    1
    39    37    14   ar
    40    28     4    1
    41    28     7    1
    42    35    36    1
    43    35    14   ar
    44    14     7    1
    45     5     4    1
    46     4    16    1
    47     7     8    1
    48     7    23    1
    49    24    23    1
    50    23    16    1
    51    23     9    1
    52    17    16    1
    53    16    29    1
    54    48    47    1
    55     9    51    2
    56     9    22    2
    57    29    47   ar
    58    29    54   ar
    59    47    26   ar
    60    55    54    1
    61    54    52   ar
    62    26    27    1
    63    26    58   ar
    64    52    58   ar
    65    52    53    1
    66    58    59    1
