@<TRIPOS>MOLECULE
trichloromesitylene
 21 21 0 0 0
SMALL
GASTEIGER

@<TRIPOS>ATOM
      1 CL          1.7094   -0.2621   10.0699 Cl      1  LIG1       -0.0829
      2 CL          3.3886   -3.4706    6.0773 Cl      1  LIG1       -0.0829
      3 CL          3.1382    1.8622    5.3183 Cl      1  LIG1       -0.0829
      4 C           2.5584   -1.7669    7.9866 C.ar    1  LIG1       -0.0132
      5 C           3.2268   -0.7768    5.8205 C.ar    1  LIG1       -0.0132
      6 C           2.4656    0.6815    7.6575 C.ar    1  LIG1       -0.0132
      7 C           2.2917   -0.4723    8.4309 C.ar    1  LIG1        0.0496
      8 C           3.0320   -1.8661    6.6715 C.ar    1  LIG1        0.0496
      9 C           3.7231   -0.9346    4.4015 C.3     1  LIG1       -0.0369
     10 H           4.0382   -1.8320    4.2709 H       1  LIG1        0.0278
     11 H           4.4406   -0.3172    4.2433 H       1  LIG1        0.0278
     12 H           3.0056   -0.7558    3.7899 H       1  LIG1        0.0278
     13 C           2.9258    0.4736    6.3565 C.ar    1  LIG1        0.0496
     14 C           2.3609   -2.9852    8.8455 C.3     1  LIG1       -0.0369
     15 H           3.2020   -3.4315    8.9648 H       1  LIG1        0.0278
     16 H           1.7406   -3.5806    8.4182 H       1  LIG1        0.0278
     17 H           2.0143   -2.7210    9.7008 H       1  LIG1        0.0278
     18 C           2.1775    2.0484    8.2063 C.3     1  LIG1       -0.0369
     19 H           1.2603    2.0947    8.4867 H       1  LIG1        0.0278
     20 H           2.3371    2.7070    7.5254 H       1  LIG1        0.0278
     21 H           2.7509    2.2194    8.9570 H       1  LIG1        0.0278
@<TRIPOS>BOND
     1    12     9    1
     2    11     9    1
     3    10     9    1
     4     9     5    1
     5     3    13    1
     6     5    13   ar
     7     5     8   ar
     8     2     8    1
     9    13     6   ar
    10     8     4   ar
    11    20    18    1
    12     6    18    1
    13     6     7   ar
    14     4     7   ar
    15     4    14    1
    16    18    19    1
    17    18    21    1
    18    16    14    1
    19     7     1    1
    20    14    15    1
    21    14    17    1
