@<TRIPOS>MOLECULE
?
 39 40 0 0 0
SMALL
GASTEIGER

@<TRIPOS>ATOM
      1 S           2.3459    3.3116   13.8973 S.2     1  LIG1       -0.0396
      2 O           1.1696    6.6892   11.1517 O.3     1  LIG1       -0.3853
      3 N           0.9519    3.8426   11.7684 N.am    1  LIG1       -0.3211
      4 C          -0.3244    2.5205   13.4239 C.3     1  LIG1        0.0072
      5 C           0.9343    3.2734   12.9612 C.2     1  LIG1        0.0571
      6 C           3.6063    6.4640   10.9535 C.ar    1  LIG1       -0.0174
      7 C           2.0975    4.4916   11.0924 C.3     1  LIG1        0.0552
      8 H           2.9327    3.9466   11.1602 H       1  LIG1        0.0529
      9 C           2.3148    5.9377   11.5417 C.3     1  LIG1        0.0986
     10 H           2.3861    5.9555   12.5393 H       1  LIG1        0.0662
     11 C           1.3742    4.2881    9.7349 C.3     1  LIG1       -0.0158
     12 H           1.2141    5.1277    9.2366 H       1  LIG1        0.0299
     13 H           1.7949    3.6047    9.1550 H       1  LIG1        0.0299
     14 C           3.6378    7.1282    9.7337 C.ar    1  LIG1       -0.0561
     15 H           2.8287    7.2949    9.2647 H       1  LIG1        0.0621
     16 C           4.8008    6.2302   11.6350 C.ar    1  LIG1       -0.0561
     17 H           4.7868    5.7744   12.4684 H       1  LIG1        0.0621
     18 C           0.1419    3.7773   10.5107 C.3     1  LIG1        0.0146
     19 H          -0.6269    4.4006   10.4967 H       1  LIG1        0.0464
     20 H          -0.1374    2.8611   10.2613 H       1  LIG1        0.0464
     21 C          -0.2448    1.0961   12.8439 C.3     1  LIG1       -0.0544
     22 H          -0.2231    1.1429   11.8651 H       1  LIG1        0.0239
     23 H          -1.0289    0.5829   13.1292 H       1  LIG1        0.0239
     24 H           0.5689    0.6569   13.1680 H       1  LIG1        0.0239
     25 C           6.0117    6.6600   11.1023 C.ar    1  LIG1       -0.0614
     26 H           6.8218    6.5079   11.5748 H       1  LIG1        0.0618
     27 C          -0.3671    2.4195   14.9542 C.3     1  LIG1       -0.0544
     28 H           0.4330    1.9529   15.2735 H       1  LIG1        0.0239
     29 H          -1.1658    1.9210   15.2267 H       1  LIG1        0.0239
     30 H          -0.3958    3.3203   15.3404 H       1  LIG1        0.0239
     31 C           4.8540    7.5507    9.1962 C.ar    1  LIG1       -0.0614
     32 H           4.8731    8.0028    8.3604 H       1  LIG1        0.0618
     33 C           6.0322    7.3107    9.8810 C.ar    1  LIG1       -0.0617
     34 H           6.8602    7.5946    9.5108 H       1  LIG1        0.0618
     35 C          -1.6169    3.2199   12.9696 C.3     1  LIG1       -0.0544
     36 H          -1.5938    4.1596   13.2456 H       1  LIG1        0.0239
     37 H          -2.3890    2.7781   13.3807 H       1  LIG1        0.0239
     38 H          -1.6908    3.1672   11.9935 H       1  LIG1        0.0239
     39 H           1.1747    7.4173   11.5882 H       1  LIG1        0.2103
@<TRIPOS>BOND
     1    32    31    1
     2    13    11    1
     3    31    14   ar
     4    31    33   ar
     5    12    11    1
     6    15    14    1
     7    34    33    1
     8    14     6   ar
     9    11    18    1
    10    11     7    1
    11    33    25   ar
    12    20    18    1
    13    19    18    1
    14    18     3    1
    15     6     9    1
    16     6    16   ar
    17     7     8    1
    18     7     9    1
    19     7     3    1
    20    25    26    1
    21    25    16   ar
    22     2     9    1
    23     2    39    1
    24     9    10    1
    25    16    17    1
    26     3     5    1
    27    22    21    1
    28    38    35    1
    29    21    23    1
    30    21    24    1
    31    21     4    1
    32     5     4    1
    33     5     1    2
    34    35    36    1
    35    35    37    1
    36    35     4    1
    37     4    27    1
    38    27    29    1
    39    27    28    1
    40    27    30    1
