@<TRIPOS>MOLECULE
C18 H19 N O3
 41 42 0 0 0
SMALL
GASTEIGER

@<TRIPOS>ATOM
      1 C           5.3076    7.4138   10.2708 C.3     1  LIG1       -0.0397
      2 H           4.5534    7.0383    9.8119 H       1  LIG1        0.0278
      3 H           6.1188    7.0716    9.8878 H       1  LIG1        0.0278
      4 H           5.2913    8.3701   10.1845 H       1  LIG1        0.0278
      5 C           5.2438    7.0418   11.7268 C.ar    1  LIG1       -0.0504
      6 C           4.2786    7.5911   12.5373 C.ar    1  LIG1       -0.0582
      7 H           3.6912    8.2198   12.1852 H       1  LIG1        0.0620
      8 C           4.1645    7.2288   13.8636 C.ar    1  LIG1       -0.0510
      9 H           3.5090    7.6236   14.3922 H       1  LIG1        0.0625
     10 C           5.0178    6.2790   14.4209 C.ar    1  LIG1        0.0193
     11 C           6.0046    5.7356   13.6109 C.ar    1  LIG1       -0.0510
     12 H           6.5944    5.1058   13.9580 H       1  LIG1        0.0625
     13 C           6.1155    6.1270   12.2851 C.ar    1  LIG1       -0.0582
     14 H           6.7916    5.7650   11.7601 H       1  LIG1        0.0620
     15 C           4.8633    5.7909   15.8175 C.2     1  LIG1        0.1828
     16 C           3.6970    6.3392   16.6512 C.3     1  LIG1        0.0808
     17 H           3.5566    7.2787   16.4092 H       1  LIG1        0.0577
     18 C           2.4398    5.5541   16.2887 C.3     1  LIG1       -0.0394
     19 H           2.5114    4.6601   16.6299 H       1  LIG1        0.0252
     20 H           2.3443    5.5255   15.3347 H       1  LIG1        0.0252
     21 H           1.6723    5.9829   16.6733 H       1  LIG1        0.0252
     22 C           4.8500    7.0323   18.7252 C.ar    1  LIG1        0.0277
     23 C           4.9349    6.9723   20.1270 C.ar    1  LIG1       -0.0401
     24 H           4.3681    6.4053   20.5988 H       1  LIG1        0.0636
     25 C           5.8456    7.7414   20.8075 C.ar    1  LIG1       -0.0460
     26 H           5.8768    7.6957   21.7366 H       1  LIG1        0.0626
     27 C           6.7243    8.5882   20.1368 C.ar    1  LIG1        0.0591
     28 C           6.6517    8.6411   18.7491 C.ar    1  LIG1       -0.0460
     29 H           7.2399    9.1896   18.2815 H       1  LIG1        0.0626
     30 C           5.7236    7.8949   18.0526 C.ar    1  LIG1       -0.0401
     31 H           5.6777    7.9658   17.1273 H       1  LIG1        0.0636
     32 C           7.6533    9.4250   20.9164 C.2     1  LIG1        0.3389
     33 C           9.4792   10.9177   20.8139 C.3     1  LIG1        0.0820
     34 H           8.9796   11.5786   21.2988 H       1  LIG1        0.0661
     35 H          10.0435   11.3517   20.1700 H       1  LIG1        0.0661
     36 H          10.0206   10.4143   21.4255 H       1  LIG1        0.0661
     37 N           3.9256    6.2633   18.0718 N.pl3   1  LIG1       -0.3342
     38 O           5.6087    4.9487   16.2815 O.2     1  LIG1       -0.2901
     39 O           7.6003    9.5876   22.1109 O.2     1  LIG1       -0.2450
     40 O           8.5717   10.0327   20.1371 O.3     1  LIG1       -0.4645
     41 H           3.5212    5.6236   18.5365 H       1  LIG1        0.1468
@<TRIPOS>BOND
     1     2     1    1
     2     3     1    1
     3     4     1    1
     4     1     5    1
     5     5    13   ar
     6     5     6   ar
     7    14    13    1
     8     7     6    1
     9    13    11   ar
    10     6     8   ar
    11    11    12    1
    12    11    10   ar
    13     8     9    1
    14     8    10   ar
    15    10    15    1
    16    20    18    1
    17    15    38    2
    18    15    16    1
    19    18    19    1
    20    18    16    1
    21    18    21    1
    22    17    16    1
    23    16    37    1
    24    31    30    1
    25    30    22   ar
    26    30    28   ar
    27    37    41    1
    28    37    22    1
    29    29    28    1
    30    22    23   ar
    31    28    27   ar
    32    23    24    1
    33    23    25   ar
    34    27    25   ar
    35    27    32    1
    36    40    33    1
    37    40    32    1
    38    35    33    1
    39    25    26    1
    40    33    34    1
    41    33    36    1
    42    32    39    2
