@<TRIPOS>MOLECULE
?
 245 246 0 0 0
SMALL
GASTEIGER

@<TRIPOS>ATOM
      1 O           6.2203   -9.3016   13.2274 O.2     1  LIG1       -0.2761
      2 O           7.7810   -6.3073    9.8486 O.2     1  LIG1       -0.2738
      3 O           4.4589   -8.5652    5.0984 O.2     1  LIG1       -0.2708
      4 O           3.6559   -3.9124    3.9024 O.2     1  LIG1       -0.2735
      5 O           3.2153   -1.7742    0.9440 O.2     1  LIG1       -0.2738
      6 O           7.5534   -1.4861    1.6077 O.2     1  LIG1       -0.2741
      7 O           6.7515   -4.4043    5.0959 O.2     1  LIG1       -0.2738
      8 O          10.1634   -2.3449    9.3886 O.2     1  LIG1       -0.2708
      9 O           8.6391   -5.1148   13.0236 O.2     1  LIG1       -0.2738
     10 O          12.6540   -3.2794   14.9692 O.2     1  LIG1       -0.2736
     11 O          13.3647   -1.7221   18.0940 O.2     1  LIG1       -0.2738
     12 O          10.7727    1.2546   15.9319 O.2     1  LIG1       -0.2741
     13 O          10.8127   -0.8944   12.7045 O.2     1  LIG1       -0.2738
     14 O          12.0043    2.2804    9.5669 O.2     1  LIG1       -0.2738
     15 O           9.9843   -0.6867    4.5145 O.2     1  LIG1       -0.2708
     16 O          10.7500    2.2610    1.4998 O.2     1  LIG1       -0.2740
     17 N           6.9646   -7.3441   12.4243 N.am    1  LIG1       -0.3040
     18 H           7.4736   -6.6659   12.5666 H       1  LIG1        0.1494
     19 N           7.0629   -8.3257    9.2463 N.am    1  LIG1       -0.3075
     20 H           6.6490   -9.0364    9.4980 H       1  LIG1        0.1493
     21 N           4.4592   -6.2999    5.0809 N.am    1  LIG1       -0.3003
     22 H           4.8935   -5.5828    5.2757 H       1  LIG1        0.1498
     23 N           2.6220   -5.0738    2.2895 N.am    1  LIG1       -0.2884
     24 N           4.6332   -3.5335    0.9470 N.am    1  LIG1       -0.3052
     25 H           4.7189   -4.3844    1.0369 H       1  LIG1        0.1492
     26 N           6.0905   -2.4896    2.9997 N.am    1  LIG1       -0.3027
     27 H           5.3461   -2.9188    3.0461 H       1  LIG1        0.1495
     28 N           8.7468   -3.3646    4.9221 N.am    1  LIG1       -0.3073
     29 H           9.1722   -2.7040    4.5729 H       1  LIG1        0.1493
     30 N           8.8234   -3.7946   10.4644 N.am    1  LIG1       -0.3003
     31 H           8.3788   -4.5289   10.4090 H       1  LIG1        0.1498
     32 N          10.4812   -3.8908   13.3832 N.am    1  LIG1       -0.3027
     33 H          10.9029   -3.1541   13.2499 H       1  LIG1        0.1495
     34 N          11.8270   -4.5991   16.5852 N.am    1  LIG1       -0.2884
     35 N          11.2368   -2.0204   17.3823 N.am    1  LIG1       -0.3052
     36 H          10.6347   -2.5963   17.1680 H       1  LIG1        0.1492
     37 N          12.0125   -0.4831   15.2367 N.am    1  LIG1       -0.3027
     38 H          12.2579   -1.2947   15.3880 H       1  LIG1        0.1495
     39 N          11.2393    1.2791   12.2625 N.am    1  LIG1       -0.3022
     40 H          11.6368    1.9928   12.5322 H       1  LIG1        0.1495
     41 N          11.3952    0.1367    9.2298 N.am    1  LIG1       -0.3075
     42 H          10.8829   -0.5043    9.4845 H       1  LIG1        0.1493
     43 N           9.9727    1.5342    4.1160 N.am    1  LIG1       -0.3003
     44 H          10.2898    2.3015    4.3392 H       1  LIG1        0.1498
     45 N           9.4364    0.5791    0.7866 N.am    1  LIG1       -0.3278
     46 H           9.8240    0.5477    0.0195 H       1  LIG1        0.1450
     47 H           8.7913    0.0383    0.9649 H       1  LIG1        0.1450
     48 C           7.9629   -8.2108   14.4410 C.3     1  LIG1        0.0122
     49 H           7.4896   -8.1210   15.2726 H       1  LIG1        0.0322
     50 H           8.5071   -7.4337   14.2972 H       1  LIG1        0.0322
     51 H           8.5222   -8.9908   14.4755 H       1  LIG1        0.0322
     52 C           6.9796   -8.3493   13.3188 C.2     1  LIG1        0.2105
     53 C           6.1387   -7.3432   11.2391 C.3     1  LIG1        0.1016
     54 H           5.6256   -8.1783   11.2106 H       1  LIG1        0.0597
     55 C           5.1592   -6.1599   11.2076 C.3     1  LIG1       -0.0197
     56 H           5.6780   -5.3282   11.2181 H       1  LIG1        0.0318
     57 C           4.3475   -6.2064    9.9041 C.3     1  LIG1       -0.0605
     58 H           4.9424   -6.1230    9.1549 H       1  LIG1        0.0233
     59 H           3.7164   -5.4846    9.8936 H       1  LIG1        0.0233
     60 H           3.8801   -7.0430    9.8486 H       1  LIG1        0.0233
     61 C           4.2423   -6.1706   12.4333 C.3     1  LIG1       -0.0605
     62 H           3.7175   -6.9733   12.4333 H       1  LIG1        0.0233
     63 H           3.6607   -5.4075   12.4033 H       1  LIG1        0.0233
     64 H           4.7750   -6.1356   13.2319 H       1  LIG1        0.0233
     65 C           7.0618   -7.2966   10.0434 C.2     1  LIG1        0.2341
     66 C           7.7311   -8.3342    7.9457 C.3     1  LIG1        0.0422
     67 H           8.1898   -7.4752    7.8303 H       1  LIG1        0.0542
     68 C           8.7612   -9.4430    7.8124 C.3     1  LIG1       -0.0285
     69 H           8.3392  -10.2586    8.1225 H       1  LIG1        0.0289
     70 H           8.9280   -9.5601    6.8624 H       1  LIG1        0.0289
     71 C          10.1119   -9.3648    8.4866 C.3     1  LIG1       -0.0448
     72 H          10.6291  -10.1434    8.1944 H       1  LIG1        0.0296
     73 C          10.8735   -8.1131    8.0251 C.3     1  LIG1       -0.0626
     74 H          10.6912   -7.3873    8.6260 H       1  LIG1        0.0232
     75 H          10.5891   -7.8734    7.1396 H       1  LIG1        0.0232
     76 H          11.8153   -8.2954    8.0191 H       1  LIG1        0.0232
     77 C           9.9890   -9.4457    9.8996 C.3     1  LIG1       -0.0626
     78 H           9.1563   -9.8646   10.1243 H       1  LIG1        0.0232
     79 H          10.0144   -8.5621   10.2741 H       1  LIG1        0.0232
     80 H          10.7156   -9.9631   10.2547 H       1  LIG1        0.0232
     81 C           6.6596   -8.4290    6.9179 C.2     1  LIG1       -0.0591
     82 H           6.2751   -9.2608    6.7635 H       1  LIG1        0.0592
     83 C           6.2210   -7.4010    6.2121 C.2     1  LIG1       -0.0020
     84 H           6.6970   -6.6013    6.2271 H       1  LIG1        0.0667
     85 C           4.9916   -7.4949    5.3985 C.2     1  LIG1        0.2372
     86 C           3.1719   -6.1882    4.4231 C.3     1  LIG1        0.1021
     87 H           3.0234   -6.9912    3.8807 H       1  LIG1        0.0597
     88 C           2.0103   -6.0407    5.4210 C.3     1  LIG1       -0.0197
     89 H           1.1863   -5.9367    4.9011 H       1  LIG1        0.0318
     90 C           1.8536   -7.2864    6.2856 C.3     1  LIG1       -0.0605
     91 H           1.6704   -8.0435    5.7252 H       1  LIG1        0.0233
     92 H           1.1267   -7.1596    6.8999 H       1  LIG1        0.0233
     93 H           2.6639   -7.4400    6.7755 H       1  LIG1        0.0233
     94 C           2.1235   -4.8464    6.3290 C.3     1  LIG1       -0.0605
     95 H           2.9346   -4.9085    6.8384 H       1  LIG1        0.0233
     96 H           1.3720   -4.8255    6.9253 H       1  LIG1        0.0233
     97 H           2.1374   -4.0444    5.8016 H       1  LIG1        0.0233
     98 C           3.1961   -4.9787    3.5091 C.2     1  LIG1        0.2368
     99 C           2.1373   -6.2744    1.6047 C.3     1  LIG1        0.0156
    100 H           1.2998   -6.5819    1.9838 H       1  LIG1        0.0465
    101 H           2.7890   -6.9913    1.6467 H       1  LIG1        0.0465
    102 C           1.9521   -5.7814    0.1918 C.3     1  LIG1       -0.0350
    103 H           2.7920   -5.7887   -0.2937 H       1  LIG1        0.0281
    104 H           1.3061   -6.3254   -0.2847 H       1  LIG1        0.0281
    105 C           1.4459   -4.3724    0.3716 C.3     1  LIG1       -0.0243
    106 H           0.4965   -4.3657    0.5769 H       1  LIG1        0.0288
    107 H           1.6003   -3.8417   -0.4255 H       1  LIG1        0.0288
    108 C           2.2767   -3.8400    1.5673 C.3     1  LIG1        0.1023
    109 H           1.6910   -3.2998    2.1366 H       1  LIG1        0.0597
    110 C           3.4397   -2.9810    1.1253 C.2     1  LIG1        0.2340
    111 C           5.7945   -2.7355    0.6053 C.3     1  LIG1        0.0882
    112 H           5.5085   -1.9958    0.0479 H       1  LIG1        0.0558
    113 H           6.4013   -3.2808    0.0809 H       1  LIG1        0.0558
    114 C           6.5536   -2.1778    1.8010 C.2     1  LIG1        0.2308
    115 C           6.7657   -2.1497    4.2478 C.3     1  LIG1        0.0996
    116 H           7.4442   -1.4628    4.0815 H       1  LIG1        0.0594
    117 C           5.7528   -1.6367    5.2592 C.3     1  LIG1       -0.0236
    118 H           4.9929   -2.2395    5.2622 H       1  LIG1        0.0290
    119 H           5.4361   -0.7705    4.9625 H       1  LIG1        0.0290
    120 C           6.2628   -1.4961    6.7021 C.3     1  LIG1       -0.0446
    121 H           6.6174   -2.3678    6.9793 H       1  LIG1        0.0296
    122 C           5.0900   -1.1672    7.6056 C.3     1  LIG1       -0.0626
    123 H           5.3937   -1.1016    8.5136 H       1  LIG1        0.0232
    124 H           4.4292   -1.8604    7.5382 H       1  LIG1        0.0232
    125 H           4.7043   -0.3311    7.3359 H       1  LIG1        0.0232
    126 C           7.3644   -0.4796    6.8699 C.3     1  LIG1       -0.0626
    127 H           8.1262   -0.7431    6.3455 H       1  LIG1        0.0232
    128 H           7.6160   -0.4276    7.7944 H       1  LIG1        0.0232
    129 H           7.0547    0.3791    6.5732 H       1  LIG1        0.0232
    130 C           7.4282   -3.4157    4.7827 C.2     1  LIG1        0.2338
    131 C           9.5060   -4.3799    5.6413 C.3     1  LIG1        0.0443
    132 H           8.9213   -5.1551    5.7731 H       1  LIG1        0.0545
    133 C          10.7298   -4.8436    4.8501 C.3     1  LIG1       -0.0246
    134 H          11.2540   -5.4286    5.4375 H       1  LIG1        0.0316
    135 C          10.3139   -5.6616    3.6440 C.3     1  LIG1       -0.0607
    136 H           9.8424   -5.1011    3.0237 H       1  LIG1        0.0233
    137 H           9.7416   -6.3782    3.9257 H       1  LIG1        0.0233
    138 H          11.0952   -6.0246    3.2184 H       1  LIG1        0.0233
    139 C          11.6316   -3.7057    4.4231 C.3     1  LIG1       -0.0607
    140 H          12.4150   -4.0604    3.9991 H       1  LIG1        0.0233
    141 H          11.8877   -3.1943    5.1948 H       1  LIG1        0.0233
    142 H          11.1618   -3.1399    3.8058 H       1  LIG1        0.0233
    143 C           9.8181   -3.7983    6.9988 C.2     1  LIG1       -0.0588
    144 H          10.4867   -3.1540    7.0377 H       1  LIG1        0.0592
    145 C           9.2322   -4.1189    8.1285 C.2     1  LIG1       -0.0020
    146 H           8.6616   -4.8523    8.1465 H       1  LIG1        0.0667
    147 C           9.4498   -3.3459    9.3781 C.2     1  LIG1        0.2372
    148 C           8.8580   -3.0925   11.7485 C.3     1  LIG1        0.1019
    149 H           9.5131   -2.3659   11.6976 H       1  LIG1        0.0597
    150 C           7.5047   -2.5116   12.1351 C.3     1  LIG1       -0.0197
    151 H           6.8756   -3.2545   12.2475 H       1  LIG1        0.0318
    152 C           6.9664   -1.5958   11.0368 C.3     1  LIG1       -0.0605
    153 H           7.5817   -0.8725   10.8915 H       1  LIG1        0.0233
    154 H           6.1158   -1.2419   11.3050 H       1  LIG1        0.0233
    155 H           6.8632   -2.0961   10.2247 H       1  LIG1        0.0233
    156 C           7.6051   -1.7684   13.4656 C.3     1  LIG1       -0.0605
    157 H           7.9574   -2.3585   14.1354 H       1  LIG1        0.0233
    158 H           6.7325   -1.4690   13.7308 H       1  LIG1        0.0233
    159 H           8.1869   -1.0116   13.3667 H       1  LIG1        0.0233
    160 C           9.3245   -4.1047   12.7824 C.2     1  LIG1        0.2342
    161 C          11.0488   -4.9010   14.2777 C.3     1  LIG1        0.0968
    162 H          10.3193   -5.3752   14.7287 H       1  LIG1        0.0592
    163 C          11.8634   -5.8878   13.4896 C.3     1  LIG1       -0.0381
    164 H          11.3297   -6.2481   12.7779 H       1  LIG1        0.0252
    165 H          12.1509   -6.5992   14.0665 H       1  LIG1        0.0252
    166 H          12.6326   -5.4459   13.1195 H       1  LIG1        0.0252
    167 C          11.9076   -4.1974   15.3206 C.2     1  LIG1        0.2362
    168 C          11.0887   -5.7498   17.1261 C.3     1  LIG1        0.0156
    169 H          11.1431   -6.5116   16.5267 H       1  LIG1        0.0465
    170 H          10.1558   -5.5283   17.2729 H       1  LIG1        0.0465
    171 C          11.7964   -6.0395   18.4431 C.3     1  LIG1       -0.0350
    172 H          11.1908   -6.4408   19.0844 H       1  LIG1        0.0281
    173 H          12.5550   -6.6288   18.3098 H       1  LIG1        0.0281
    174 C          12.2488   -4.6607   18.9046 C.3     1  LIG1       -0.0243
    175 H          12.9969   -4.7280   19.5174 H       1  LIG1        0.0288
    176 H          11.5246   -4.1858   19.3421 H       1  LIG1        0.0288
    177 C          12.6605   -3.9590   17.6115 C.3     1  LIG1        0.1023
    178 H          13.6032   -4.1466   17.4272 H       1  LIG1        0.0597
    179 C          12.4519   -2.4436   17.7014 C.2     1  LIG1        0.2340
    180 C          10.8975   -0.6184   17.3853 C.3     1  LIG1        0.0882
    181 H          11.3703   -0.1895   18.1165 H       1  LIG1        0.0558
    182 H           9.9470   -0.5323   17.5636 H       1  LIG1        0.0558
    183 C          11.2131    0.1284   16.1072 C.2     1  LIG1        0.2308
    184 C          12.4788    0.1871   14.0395 C.3     1  LIG1        0.0996
    185 H          12.7061    1.1185   14.2463 H       1  LIG1        0.0594
    186 C          13.7000   -0.5325   13.4836 C.3     1  LIG1       -0.0236
    187 H          14.0254   -0.0348   12.7179 H       1  LIG1        0.0290
    188 H          13.4217   -1.4054   13.1660 H       1  LIG1        0.0290
    189 C          14.8636   -0.7234   14.4635 C.3     1  LIG1       -0.0446
    190 H          14.5469   -1.2529   15.2262 H       1  LIG1        0.0296
    191 C          15.9558   -1.4897   13.7698 C.3     1  LIG1       -0.0626
    192 H          15.6235   -2.3492   13.5016 H       1  LIG1        0.0232
    193 H          16.6958   -1.6051   14.3691 H       1  LIG1        0.0232
    194 H          16.2453   -1.0026   12.9951 H       1  LIG1        0.0232
    195 C          15.3764    0.6205   14.9819 C.3     1  LIG1       -0.0626
    196 H          16.0568    0.4698   15.6427 H       1  LIG1        0.0232
    197 H          14.6506    1.1094   15.3745 H       1  LIG1        0.0232
    198 H          15.7436    1.1252   14.2523 H       1  LIG1        0.0232
    199 C          11.4126    0.1475   12.9577 C.2     1  LIG1        0.2340
    200 C          10.4068    1.3497   11.0668 C.3     1  LIG1        0.1017
    201 H           9.8184    0.5668   11.0473 H       1  LIG1        0.0597
    202 C           9.5437    2.6093   11.0548 C.3     1  LIG1       -0.0197
    203 H          10.1396    3.3869   11.0818 H       1  LIG1        0.0318
    204 C           8.7462    2.6677    9.7512 C.3     1  LIG1       -0.0605
    205 H           8.2216    1.8690    9.6613 H       1  LIG1        0.0233
    206 H           9.3508    2.7381    9.0095 H       1  LIG1        0.0233
    207 H           8.1657    3.4325    9.7647 H       1  LIG1        0.0233
    208 C           8.6413    2.6710   12.2654 C.3     1  LIG1       -0.0605
    209 H           8.1423    3.4918   12.2505 H       1  LIG1        0.0233
    210 H           9.1739    2.6345   13.0626 H       1  LIG1        0.0233
    211 H           8.0344    1.9269   12.2505 H       1  LIG1        0.0233
    212 C          11.3295    1.2919    9.8696 C.2     1  LIG1        0.2341
    213 C          12.3015   -0.0986    8.1060 C.3     1  LIG1        0.0422
    214 H          12.9019    0.6705    8.0221 H       1  LIG1        0.0542
    215 C          13.1453   -1.3524    8.3533 C.3     1  LIG1       -0.0285
    216 H          12.5715   -2.1305    8.2694 H       1  LIG1        0.0289
    217 H          13.8199   -1.4108    7.6595 H       1  LIG1        0.0289
    218 C          13.8431   -1.4116    9.7108 C.3     1  LIG1       -0.0448
    219 H          13.1549   -1.3652   10.4060 H       1  LIG1        0.0296
    220 C          14.5681   -2.7127    9.8666 C.3     1  LIG1       -0.0626
    221 H          13.9361   -3.4358    9.8426 H       1  LIG1        0.0232
    222 H          15.0326   -2.7222   10.7072 H       1  LIG1        0.0232
    223 H          15.1986   -2.8160    9.1504 H       1  LIG1        0.0232
    224 C          14.7740   -0.2242    9.8951 C.3     1  LIG1       -0.0626
    225 H          15.3660   -0.3942   10.6323 H       1  LIG1        0.0232
    226 H          14.2560    0.5636   10.0764 H       1  LIG1        0.0232
    227 H          15.2882   -0.0943    9.0950 H       1  LIG1        0.0232
    228 C          11.5032   -0.2278    6.8384 C.2     1  LIG1       -0.0591
    229 H          11.1788   -1.0760    6.6392 H       1  LIG1        0.0592
    230 C          11.2154    0.7207    5.9844 C.2     1  LIG1       -0.0020
    231 H          11.5578    1.5764    6.1117 H       1  LIG1        0.0667
    232 C          10.3530    0.4460    4.8202 C.2     1  LIG1        0.2372
    233 C           9.0563    1.4594    3.0027 C.3     1  LIG1        0.1017
    234 H           8.5551    0.6197    3.0656 H       1  LIG1        0.0597
    235 C           8.0503    2.6405    3.0596 C.3     1  LIG1       -0.0197
    236 H           8.5639    3.4652    3.1855 H       1  LIG1        0.0318
    237 C           7.2575    2.7818    1.7920 C.3     1  LIG1       -0.0605
    238 H           6.7588    1.9770    1.6362 H       1  LIG1        0.0233
    239 H           7.8555    2.9360    1.0563 H       1  LIG1        0.0233
    240 H           6.6536    3.5225    1.8744 H       1  LIG1        0.0233
    241 C           7.1357    2.4813    4.2523 C.3     1  LIG1       -0.0605
    242 H           6.5976    3.2715    4.3482 H       1  LIG1        0.0233
    243 H           7.6620    2.3530    5.0449 H       1  LIG1        0.0233
    244 H           6.5667    1.7201    4.1189 H       1  LIG1        0.0233
    245 C           9.8339    1.4620    1.6961 C.2     1  LIG1        0.2311
@<TRIPOS>BOND
     1   107   105    1
     2   103   102    1
     3   104   102    1
     4    46    45    1
     5   112   111    1
     6   113   111    1
     7   102   105    1
     8   102    99    1
     9   105   106    1
    10   105   108    1
    11   111    24    1
    12   111   114    1
    13    45    47    1
    14    45   245   am
    15     5   110    2
    16    24    25    1
    17    24   110   am
    18   239   237    1
    19   110   108    1
    20    16   245    2
    21   108   109    1
    22   108    23    1
    23    99   101    1
    24    99   100    1
    25    99    23    1
    26     6   114    2
    27   238   237    1
    28   245   233    1
    29   237   240    1
    30   237   235    1
    31   114    26   am
    32    23    98   am
    33    26    27    1
    34    26   115    1
    35   233   235    1
    36   233   234    1
    37   233    43    1
    38   136   135    1
    39   235   236    1
    40   235   241    1
    41   138   135    1
    42    98     4    2
    43    98    86    1
    44   135   137    1
    45   135   133    1
    46   142   139    1
    47    87    86    1
    48   140   139    1
    49   116   115    1
    50    43    44    1
    51    43   232   am
    52   244   241    1
    53   115   130    1
    54   115   117    1
    55   241   242    1
    56   241   243    1
    57    86    21    1
    58    86    88    1
    59   139   133    1
    60   139   141    1
    61    15   232    2
    62    29    28    1
    63   130    28   am
    64   130     7    2
    65   232   230    1
    66   133   134    1
    67   133   131    1
    68    89    88    1
    69    28   131    1
    70   119   117    1
    71    21    22    1
    72    21    85   am
    73     3    85    2
    74   117   118    1
    75   117   120    1
    76    85    83    1
    77    88    90    1
    78    88    94    1
    79   131   132    1
    80   131   143    1
    81    91    90    1
    82    97    94    1
    83   230   231    1
    84   230   228    2
    85    83    84    1
    86    83    81    2
    87    90    93    1
    88    90    92    1
    89    94    95    1
    90    94    96    1
    91   127   126    1
    92   129   126    1
    93   229   228    1
    94   120   126    1
    95   120   121    1
    96   120   122    1
    97    82    81    1
    98   228   213    1
    99    70    68    1
   100   126   128    1
   101    81    66    1
   102   143   144    1
   103   143   145    2
   104    75    73    1
   105   125   122    1
   106   124   122    1
   107   122   123    1
   108   217   215    1
   109    68    66    1
   110    68    69    1
   111    68    71    1
   112    67    66    1
   113    66    19    1
   114    76    73    1
   115   214   213    1
   116    73    71    1
   117    73    74    1
   118   213   215    1
   119   213    41    1
   120   145   146    1
   121   145   147    1
   122    72    71    1
   123   216   215    1
   124   215   218    1
   125    71    77    1
   126   206   204    1
   127   227   224    1
   128   223   220    1
   129    58    57    1
   130    41    42    1
   131    41   212   am
   132    19    20    1
   133    19    65   am
   134   147     8    2
   135   147    30   am
   136    14   212    2
   137   205   204    1
   138   218   220    1
   139   218   224    1
   140   218   219    1
   141   204   207    1
   142   204   202    1
   143   221   220    1
   144     2    65    2
   145    60    57    1
   146   220   222    1
   147   212   200    1
   148    59    57    1
   149   224   226    1
   150   224   225    1
   151    77    78    1
   152    77    80    1
   153    77    79    1
   154    57    55    1
   155    65    53    1
   156   155   152    1
   157    31    30    1
   158    30   148    1
   159   153   152    1
   160   152   154    1
   161   152   150    1
   162   201   200    1
   163   202   200    1
   164   202   203    1
   165   202   208    1
   166   200    39    1
   167    55    56    1
   168    55    53    1
   169    55    61    1
   170    54    53    1
   171    53    17    1
   172   149   148    1
   173   148   150    1
   174   148   160    1
   175   150   151    1
   176   150   156    1
   177   211   208    1
   178   209   208    1
   179    39    40    1
   180    39   199   am
   181   208   210    1
   182    63    61    1
   183    17    18    1
   184    17    52   am
   185    61    62    1
   186    61    64    1
   187    13   199    2
   188   187   186    1
   189   164   163    1
   190   160     9    2
   191   160    32   am
   192   199   184    1
   193   194   191    1
   194   166   163    1
   195   188   186    1
   196     1    52    2
   197    33    32    1
   198    52    48    1
   199   159   156    1
   200    32   161    1
   201   156   158    1
   202   156   157    1
   203   186   184    1
   204   186   189    1
   205   163   165    1
   206   163   161    1
   207   192   191    1
   208   191   193    1
   209   191   189    1
   210   184   185    1
   211   184    37    1
   212   198   195    1
   213   161   162    1
   214   161   167    1
   215    50    48    1
   216    48    51    1
   217    48    49    1
   218   189   195    1
   219   189   190    1
   220    10   167    2
   221   195   197    1
   222   195   196    1
   223    37    38    1
   224    37   183   am
   225   167    34   am
   226    12   183    2
   227   183   180    1
   228   169   168    1
   229    34   168    1
   230    34   177    1
   231   168   170    1
   232   168   171    1
   233    36    35    1
   234    35   180    1
   235    35   179   am
   236   180   182    1
   237   180   181    1
   238   178   177    1
   239   177   179    1
   240   177   174    1
   241   179    11    2
   242   173   171    1
   243   171   174    1
   244   171   172    1
   245   174   176    1
   246   174   175    1
