@<TRIPOS>MOLECULE
?
 77 81 0 0 0
SMALL
GASTEIGER

@<TRIPOS>ATOM
      1 CL          3.5181    8.9186   14.8263 Cl      1  LIG1       -0.0835
      2 O           7.1107    7.9238   10.3237 O.3     1  LIG1       -0.4114
      3 O           9.0469    7.9258   11.5122 O.2     1  LIG1       -0.2258
      4 O           5.1845    3.7596    5.8881 O.3     1  LIG1       -0.4440
      5 O           4.4370    2.8664    7.7524 O.2     1  LIG1       -0.2254
      6 O           7.6091    4.7678    5.9055 O.2     1  LIG1       -0.2737
      7 O           9.6552    2.6775    8.1434 O.3     1  LIG1       -0.4587
      8 O          11.3520    3.6837    9.2653 O.2     1  LIG1       -0.2505
      9 N           9.0069    7.2215    9.3637 N.am    1  LIG1       -0.2587
     10 N           6.3920    4.0101    7.7344 N.am    1  LIG1       -0.1746
     11 C           6.0573    9.4412   11.8286 C.ar    1  LIG1       -0.0178
     12 H           6.4488   10.1578   11.3829 H       1  LIG1        0.0655
     13 C           5.1851    9.6691   12.8773 C.ar    1  LIG1       -0.0399
     14 H           4.9873   10.5387   13.1394 H       1  LIG1        0.0633
     15 C           4.6281    8.6260   13.5130 C.ar    1  LIG1        0.0412
     16 C           4.9152    7.3478   13.1722 C.ar    1  LIG1       -0.0399
     17 H           4.5492    6.6374   13.6463 H       1  LIG1        0.0633
     18 C           5.7645    7.1178   12.1017 C.ar    1  LIG1       -0.0178
     19 H           5.9420    6.2472   11.8242 H       1  LIG1        0.0655
     20 C           6.3385    8.1722   11.4550 C.ar    1  LIG1        0.1333
     21 C           8.4691    7.7010   10.4941 C.2     1  LIG1        0.4087
     22 C          10.4406    6.8971    9.3300 C.3     1  LIG1        0.0255
     23 H          10.6662    6.2924   10.0545 H       1  LIG1        0.0472
     24 H          10.9709    7.7041    9.4231 H       1  LIG1        0.0472
     25 C          10.7085    6.2390    7.9853 C.3     1  LIG1        0.0073
     26 H          11.6649    6.0624    7.8741 H       1  LIG1        0.0367
     27 C          10.2093    7.1497    6.8974 C.2     1  LIG1       -0.0808
     28 H          10.7567    7.5090    6.2376 H       1  LIG1        0.0573
     29 C           8.9216    7.3848    6.9770 C.2     1  LIG1       -0.0659
     30 H           8.4624    7.8847    6.3403 H       1  LIG1        0.0588
     31 C           8.2445    6.7790    8.1819 C.3     1  LIG1        0.0663
     32 H           7.3046    7.0501    8.2389 H       1  LIG1        0.0559
     33 C           9.8892    4.9362    7.8050 C.3     1  LIG1        0.0841
     34 H           9.9110    4.7278    6.8472 H       1  LIG1        0.0434
     35 C           8.3924    5.2165    8.1581 C.3     1  LIG1        0.1100
     36 C          10.4089    3.7114    8.5173 C.2     1  LIG1        0.3127
     37 C           9.8229    1.3080    8.6803 C.3     1  LIG1        0.1052
     38 C          11.2049    0.7885    8.2870 C.3     1  LIG1       -0.0254
     39 H          11.3251    0.8850    7.3388 H       1  LIG1        0.0268
     40 H          11.2786   -0.1376    8.5251 H       1  LIG1        0.0268
     41 H          11.8785    1.2936    8.7480 H       1  LIG1        0.0268
     42 C           8.7084    0.5667    7.9680 C.3     1  LIG1       -0.0254
     43 H           7.8675    0.9887    8.1624 H       1  LIG1        0.0268
     44 H           8.6853   -0.3439    8.2695 H       1  LIG1        0.0268
     45 H           8.8640    0.5872    7.0198 H       1  LIG1        0.0268
     46 C           9.6287    1.3172   10.1725 C.3     1  LIG1       -0.0254
     47 H          10.2754    1.8993   10.5767 H       1  LIG1        0.0268
     48 H           9.7399    0.4271   10.5155 H       1  LIG1        0.0268
     49 H           8.7439    1.6303   10.3778 H       1  LIG1        0.0268
     50 C           7.4561    4.6549    7.0808 C.2     1  LIG1        0.2423
     51 C           6.6706    3.9126    9.1415 C.ar    1  LIG1        0.0514
     52 C           7.8455    4.5902    9.4266 C.ar    1  LIG1       -0.0073
     53 C           8.3368    4.5830   10.7158 C.ar    1  LIG1       -0.0528
     54 H           9.1330    5.0245   10.9088 H       1  LIG1        0.0624
     55 C           7.6510    3.9218   11.7287 C.ar    1  LIG1       -0.0500
     56 C           6.4774    3.2833   11.4161 C.ar    1  LIG1       -0.0570
     57 H           5.9989    2.8644   12.0951 H       1  LIG1        0.0621
     58 C           5.9799    3.2412   10.1231 C.ar    1  LIG1       -0.0392
     59 H           5.2005    2.7730    9.9256 H       1  LIG1        0.0636
     60 C           8.1991    3.9208   13.1368 C.3     1  LIG1       -0.0397
     61 H           8.9991    3.3931   13.1678 H       1  LIG1        0.0278
     62 H           7.5454    3.5492   13.7337 H       1  LIG1        0.0278
     63 H           8.3981    4.8222   13.4016 H       1  LIG1        0.0278
     64 C           5.2258    3.4876    7.1378 C.2     1  LIG1        0.4143
     65 C           4.0394    3.4321    5.0207 C.3     1  LIG1        0.1068
     66 C           4.4579    3.8602    3.7207 C.3     1  LIG1       -0.0253
     67 H           4.3824    4.8181    3.6596 H       1  LIG1        0.0268
     68 H           3.9011    3.4547    3.0544 H       1  LIG1        0.0268
     69 H           5.3714    3.6046    3.5765 H       1  LIG1        0.0268
     70 C           3.9210    2.0081    4.9551 C.3     1  LIG1       -0.0253
     71 H           3.9284    1.7279    4.0375 H       1  LIG1        0.0268
     72 H           3.0959    1.7361    5.3637 H       1  LIG1        0.0268
     73 H           4.6565    1.6036    5.4183 H       1  LIG1        0.0268
     74 C           2.8437    4.0656    5.5145 C.3     1  LIG1       -0.0253
     75 H           2.5948    3.6662    6.3534 H       1  LIG1        0.0268
     76 H           2.1325    3.9444    4.8809 H       1  LIG1        0.0268
     77 H           3.0063    5.0009    5.6412 H       1  LIG1        0.0268
@<TRIPOS>BOND
     1    68    66    1
     2    69    66    1
     3    67    66    1
     4    66    65    1
     5    71    70    1
     6    76    74    1
     7    70    65    1
     8    70    72    1
     9    70    73    1
    10    65    74    1
    11    65     4    1
    12    74    77    1
    13    74    75    1
    14     4    64    1
    15     6    50    2
    16    28    27    1
    17    30    29    1
    18    34    33    1
    19    27    29    2
    20    27    25    1
    21    29    31    1
    22    45    42    1
    23    50    10   am
    24    50    35    1
    25    64    10   am
    26    64     5    2
    27    39    38    1
    28    10    51    1
    29    33    25    1
    30    33    35    1
    31    33    36    1
    32    26    25    1
    33    42    43    1
    34    42    44    1
    35    42    37    1
    36    25    22    1
    37     7    36    1
    38     7    37    1
    39    35    31    1
    40    35    52    1
    41    31    32    1
    42    31     9    1
    43    38    40    1
    44    38    37    1
    45    38    41    1
    46    36     8    2
    47    37    46    1
    48    51    52   ar
    49    51    58   ar
    50    22     9    1
    51    22    24    1
    52    22    23    1
    53     9    21   am
    54    52    53   ar
    55    59    58    1
    56    58    56   ar
    57    46    49    1
    58    46    48    1
    59    46    47    1
    60     2    21    1
    61     2    20    1
    62    21     3    2
    63    53    54    1
    64    53    55   ar
    65    12    11    1
    66    56    55   ar
    67    56    57    1
    68    20    11   ar
    69    20    18   ar
    70    55    60    1
    71    19    18    1
    72    11    13   ar
    73    18    16   ar
    74    13    14    1
    75    13    15   ar
    76    60    61    1
    77    60    63    1
    78    60    62    1
    79    16    15   ar
    80    16    17    1
    81    15     1    1
