@<TRIPOS>MOLECULE
C23 H16 O2
 41 45 0 0 0
SMALL
GASTEIGER

@<TRIPOS>ATOM
      1 O          -1.9940   12.4067    8.3186 O.2     1  LIG1       -0.4590
      2 O           0.1937   14.3886   11.4415 O.2     1  LIG1       -0.2865
      3 C          -1.0857   13.0533    1.1353 C.ar    1  LIG1       -0.0612
      4 H          -0.5970   13.3612    0.4058 H       1  LIG1        0.0618
      5 C          -0.6415   13.3025    2.4043 C.ar    1  LIG1       -0.0540
      6 H           0.1480   13.7787    2.5300 H       1  LIG1        0.0624
      7 C          -1.3719   12.8437    3.5298 C.ar    1  LIG1       -0.0172
      8 C          -2.5661   12.1038    3.3200 C.ar    1  LIG1       -0.0178
      9 C          -2.9977   11.8654    1.9877 C.ar    1  LIG1       -0.0540
     10 H          -3.7791   11.3838    1.8371 H       1  LIG1        0.0624
     11 C          -2.2770   12.3342    0.9244 C.ar    1  LIG1       -0.0612
     12 H          -2.5753   12.1778    0.0574 H       1  LIG1        0.0618
     13 C          -3.2763   11.6389    4.4527 C.ar    1  LIG1       -0.0534
     14 H          -4.0542   11.1437    4.3331 H       1  LIG1        0.0624
     15 C          -2.8390   11.9069    5.7179 C.ar    1  LIG1       -0.0505
     16 H          -3.3223   11.5872    6.4456 H       1  LIG1        0.0625
     17 C          -1.6583   12.6663    5.9442 C.ar    1  LIG1        0.0182
     18 C          -0.9469   13.1156    4.8509 C.ar    1  LIG1       -0.0433
     19 H          -0.1705   13.6100    4.9855 H       1  LIG1        0.0631
     20 C          -1.2315   12.9754    7.3018 C.ar    1  LIG1        0.1394
     21 C          -0.2681   13.7573    7.8585 C.ar    1  LIG1        0.0138
     22 C          -0.4427   13.6710    9.2759 C.ar    1  LIG1        0.0669
     23 C          -1.5009   12.8430    9.5050 C.ar    1  LIG1        0.1138
     24 C          -2.1885   12.3729   10.7294 C.3     1  LIG1       -0.0056
     25 H          -3.1268   12.5672   10.6639 H       1  LIG1        0.0308
     26 H          -1.8215   12.8203   11.4950 H       1  LIG1        0.0308
     27 H          -2.0636   11.4249   10.8231 H       1  LIG1        0.0308
     28 C           0.7489   14.6531    7.2360 C.3     1  LIG1        0.0025
     29 H           0.2918   15.3277    6.7104 H       1  LIG1        0.0363
     30 H           1.2974   14.1313    6.6309 H       1  LIG1        0.0363
     31 C           1.6488   15.3411    8.2383 C.ar    1  LIG1       -0.0321
     32 C           2.7034   16.1201    7.7609 C.ar    1  LIG1       -0.0576
     33 H           2.8282   16.2082    6.8435 H       1  LIG1        0.0621
     34 C           3.5676   16.7620    8.6304 C.ar    1  LIG1       -0.0615
     35 H           4.2636   17.2791    8.2931 H       1  LIG1        0.0618
     36 C           3.4020   16.6381   10.0025 C.ar    1  LIG1       -0.0611
     37 H           3.9877   17.0649   10.5856 H       1  LIG1        0.0618
     38 C           2.3644   15.8802   10.4919 C.ar    1  LIG1       -0.0506
     39 H           2.2521   15.7971   11.4115 H       1  LIG1        0.0625
     40 C           1.4732   15.2295    9.6263 C.ar    1  LIG1        0.0259
     41 C           0.3767   14.4182   10.2286 C.2     1  LIG1        0.1970
@<TRIPOS>BOND
     1    12    11    1
     2     4     3    1
     3    11     3   ar
     4    11     9   ar
     5     3     5   ar
     6    10     9    1
     7     9     8   ar
     8     5     6    1
     9     5     7   ar
    10     8     7   ar
    11     8    13   ar
    12     7    18   ar
    13    14    13    1
    14    13    15   ar
    15    18    19    1
    16    18    17   ar
    17    15    17   ar
    18    15    16    1
    19    17    20    1
    20    30    28    1
    21    29    28    1
    22    33    32    1
    23    28    21    1
    24    28    31    1
    25    20    21   ar
    26    20     1   ar
    27    32    31   ar
    28    32    34   ar
    29    21    22   ar
    30    31    40   ar
    31    35    34    1
    32     1    23   ar
    33    34    36   ar
    34    22    23   ar
    35    22    41    1
    36    23    24    1
    37    40    41    1
    38    40    38   ar
    39    36    38   ar
    40    36    37    1
    41    41     2    2
    42    38    39    1
    43    25    24    1
    44    24    27    1
    45    24    26    1
