@<TRIPOS>MOLECULE
?
 45 49 0 0 0
SMALL
GASTEIGER

@<TRIPOS>ATOM
      1 C           4.9869    6.3202    4.1081 C.ar    1  LIG1       -0.0502
      2 H           4.6176    6.8081    3.4076 H       1  LIG1        0.0625
      3 C           4.9211    6.8015    5.3955 C.ar    1  LIG1       -0.0610
      4 H           4.4941    7.6106    5.5626 H       1  LIG1        0.0618
      5 C           5.4797    6.0972    6.4372 C.ar    1  LIG1       -0.0610
      6 H           5.4572    6.4490    7.2978 H       1  LIG1        0.0618
      7 C           6.0730    4.8759    6.2123 C.ar    1  LIG1       -0.0502
      8 H           6.4348    4.3961    6.9217 H       1  LIG1        0.0625
      9 C           6.1299    4.3608    4.9239 C.ar    1  LIG1        0.0331
     10 C           5.6069    5.1032    3.8593 C.ar    1  LIG1        0.0328
     11 C           5.7489    4.6095    2.4774 C.2     1  LIG1        0.1917
     12 C           6.5286    3.3688    2.2465 C.2     1  LIG1        0.0307
     13 C           6.9769    2.6042    3.2693 C.2     1  LIG1        0.0392
     14 C           6.7056    3.0159    4.6911 C.2     1  LIG1        0.1949
     15 C           7.7285    1.3630    3.0395 C.ar    1  LIG1        0.0088
     16 C           8.8308    1.0689    3.8504 C.ar    1  LIG1       -0.0338
     17 H           9.0618    1.6438    4.5428 H       1  LIG1        0.0639
     18 C           9.5714   -0.0590    3.6315 C.ar    1  LIG1        0.0417
     19 C           9.2431   -0.9485    2.6206 C.ar    1  LIG1       -0.0416
     20 H           9.7493   -1.7168    2.4853 H       1  LIG1        0.0633
     21 C           8.1632   -0.6795    1.8267 C.ar    1  LIG1       -0.0385
     22 H           7.9331   -1.2775    1.1531 H       1  LIG1        0.0637
     23 C           7.4033    0.4668    2.0058 C.ar    1  LIG1        0.0414
     24 C           5.9215    1.7546    0.5054 C.2     1  LIG1        0.2324
     25 C           6.7477    2.9912    0.8019 C.3     1  LIG1        0.1276
     26 H           6.3822    3.7191    0.2567 H       1  LIG1        0.0527
     27 C           8.2025    2.7925    0.3671 C.2     1  LIG1        0.1795
     28 C           9.2496    3.6591    0.9611 C.ar    1  LIG1        0.0187
     29 C           9.0359    5.0019    1.2158 C.ar    1  LIG1       -0.0485
     30 H           8.2057    5.3776    1.0288 H       1  LIG1        0.0625
     31 C          10.0286    5.7875    1.7381 C.ar    1  LIG1       -0.0258
     32 H           9.8923    6.6962    1.8794 H       1  LIG1        0.0646
     33 C          11.2162    5.2071    2.0466 C.ar    1  LIG1        0.1234
     34 C          11.4792    3.8995    1.8446 C.ar    1  LIG1       -0.0258
     35 H          12.3008    3.5371    2.0844 H       1  LIG1        0.0646
     36 C          10.4826    3.1012    1.2636 C.ar    1  LIG1       -0.0485
     37 H          10.6469    2.2040    1.0835 H       1  LIG1        0.0625
     38 CL         10.9662   -0.3597    4.6299 Cl      1  LIG1       -0.0835
     39 F          12.1856    5.9743    2.5987 F       1  LIG1       -0.2055
     40 N           6.2932    0.6369    1.1591 N.am    1  LIG1       -0.2841
     41 H           5.7929   -0.0526    1.0467 H       1  LIG1        0.1548
     42 O           5.2893    5.2250    1.5280 O.2     1  LIG1       -0.2869
     43 O           6.9155    2.2583    5.6152 O.2     1  LIG1       -0.2866
     44 O           4.9626    1.7809   -0.2557 O.2     1  LIG1       -0.2743
     45 O           8.4585    1.9532   -0.4616 O.2     1  LIG1       -0.2909
@<TRIPOS>BOND
     1    45    27    2
     2    44    24    2
     3    26    25    1
     4    27    25    1
     5    27    28    1
     6    24    25    1
     7    24    40   am
     8    25    12    1
     9    28    29   ar
    10    28    36   ar
    11    30    29    1
    12    41    40    1
    13    37    36    1
    14    22    21    1
    15    40    23    1
    16    29    31   ar
    17    36    34   ar
    18    42    11    2
    19    31    32    1
    20    31    33   ar
    21    21    23   ar
    22    21    19   ar
    23    34    33   ar
    24    34    35    1
    25    23    15   ar
    26    33    39    1
    27    12    11    1
    28    12    13    2
    29    11    10    1
    30    20    19    1
    31    19    18   ar
    32    15    13    1
    33    15    16   ar
    34    13    14    1
    35     2     1    1
    36    18    16   ar
    37    18    38    1
    38    16    17    1
    39    10     1   ar
    40    10     9   ar
    41     1     3   ar
    42    14     9    1
    43    14    43    2
    44     9     7   ar
    45     3     4    1
    46     3     5   ar
    47     7     5   ar
    48     7     8    1
    49     5     6    1
