@<TRIPOS>MOLECULE
(2S,3S)-3,7-dimethyl-2-(5-methyl-2-oxohexyl)-3- ((E)-6-methyl-3-oxohept-1-en-1-yl)-3,4-dihydronaphthalen-1(2H)-one
 68 69 0 0 0
SMALL
GASTEIGER

@<TRIPOS>ATOM
      1 O           4.6103   15.6952   22.7165 O.2     1  LIG1       -0.2917
      2 O           9.9747   18.8097   26.9882 O.2     1  LIG1       -0.2927
      3 O           7.6184   15.3703   26.1902 O.2     1  LIG1       -0.2974
      4 C           5.6052   16.3952   22.6423 C.2     1  LIG1        0.1677
      5 C           8.8348   19.2348   27.0789 C.2     1  LIG1        0.1558
      6 C           6.0160   17.0104   21.3470 C.ar    1  LIG1        0.0212
      7 C           8.0196   18.3077   24.9540 C.2     1  LIG1       -0.0738
      8 H           8.7760   17.7680   24.9832 H       1  LIG1        0.0579
      9 C           7.1427   17.8224   21.2590 C.ar    1  LIG1       -0.0360
     10 C           6.4775   16.6811   23.8641 C.3     1  LIG1        0.0379
     11 H           7.2248   16.0474   23.8378 H       1  LIG1        0.0393
     12 C           5.7161   16.4199   25.1585 C.3     1  LIG1        0.0165
     13 H           5.2845   17.2456   25.4281 H       1  LIG1        0.0349
     14 H           5.0166   15.7738   24.9750 H       1  LIG1        0.0349
     15 C           5.2045   16.7901   20.2082 C.ar    1  LIG1       -0.0481
     16 H           4.4426   16.2627   20.2837 H       1  LIG1        0.0627
     17 C           6.5385   15.9112   26.3234 C.2     1  LIG1        0.1341
     18 C           7.8609   19.1779   25.9517 C.2     1  LIG1       -0.0226
     19 H           7.1329   19.7559   25.9444 H       1  LIG1        0.0649
     20 C           7.4866   18.3547   20.0188 C.ar    1  LIG1       -0.0576
     21 H           8.2533   18.8758   19.9385 H       1  LIG1        0.0621
     22 C           7.0893   18.1158   23.7794 C.3     1  LIG1        0.0005
     23 C           7.9543   18.1443   22.4919 C.3     1  LIG1       -0.0175
     24 H           8.3494   19.0256   22.3936 H       1  LIG1        0.0322
     25 H           8.6755   17.5018   22.5762 H       1  LIG1        0.0322
     26 C           6.0061   19.2001   23.7255 C.3     1  LIG1       -0.0551
     27 H           6.4208   20.0629   23.6536 H       1  LIG1        0.0238
     28 H           5.4782   19.1642   24.5267 H       1  LIG1        0.0238
     29 H           5.4418   19.0504   22.9630 H       1  LIG1        0.0238
     30 C           8.3064   19.8537   28.3582 C.3     1  LIG1        0.0101
     31 H           7.4595   19.4366   28.5805 H       1  LIG1        0.0345
     32 H           8.1374   20.7957   28.2020 H       1  LIG1        0.0345
     33 C           9.2458   19.7163   29.5475 C.3     1  LIG1       -0.0437
     34 H          10.0761   20.1743   29.3441 H       1  LIG1        0.0272
     35 H           9.4515   18.7768   29.6761 H       1  LIG1        0.0272
     36 C           5.5291   17.3496   18.9849 C.ar    1  LIG1       -0.0498
     37 C           8.6805   20.2771   30.8488 C.3     1  LIG1       -0.0463
     38 H           8.4647   21.2228   30.7086 H       1  LIG1        0.0296
     39 C           6.0394   15.8963   30.2000 C.3     1  LIG1       -0.0463
     40 H           6.3061   16.8371   30.2571 H       1  LIG1        0.0296
     41 C           5.8822   16.1278   27.6682 C.3     1  LIG1        0.0061
     42 H           4.9471   15.8840   27.5928 H       1  LIG1        0.0342
     43 H           5.9190   17.0748   27.8750 H       1  LIG1        0.0342
     44 C           6.6958   18.1170   18.8993 C.ar    1  LIG1       -0.0585
     45 H           6.9477   18.4735   18.0776 H       1  LIG1        0.0620
     46 C           9.7293   20.1830   31.9630 C.3     1  LIG1       -0.0627
     47 H          10.5049   20.6930   31.7163 H       1  LIG1        0.0232
     48 H           9.9769   19.2657   32.0931 H       1  LIG1        0.0232
     49 H           9.3624   20.5345   32.7787 H       1  LIG1        0.0232
     50 C           6.4857   15.3579   28.8396 C.3     1  LIG1       -0.0440
     51 H           7.4530   15.4037   28.7830 H       1  LIG1        0.0272
     52 H           6.2290   14.4245   28.7697 H       1  LIG1        0.0272
     53 C           4.6362   17.1602   17.7771 C.3     1  LIG1       -0.0397
     54 H           4.2426   18.0019   17.5348 H       1  LIG1        0.0278
     55 H           3.9422   16.5314   17.9879 H       1  LIG1        0.0278
     56 H           5.1574   16.8272   17.0434 H       1  LIG1        0.0278
     57 C           7.4159   19.5591   31.2833 C.3     1  LIG1       -0.0627
     58 H           7.6040   18.6258   31.4042 H       1  LIG1        0.0232
     59 H           6.7403   19.6643   30.6090 H       1  LIG1        0.0232
     60 H           7.1036   19.9329   32.1097 H       1  LIG1        0.0232
     61 C           6.7348   15.1363   31.3328 C.3     1  LIG1       -0.0627
     62 H           7.6862   15.1821   31.2116 H       1  LIG1        0.0232
     63 H           6.4539   14.2191   31.3229 H       1  LIG1        0.0232
     64 H           6.5005   15.5337   32.1744 H       1  LIG1        0.0232
     65 C           4.5375   15.8221   30.3828 C.3     1  LIG1       -0.0627
     66 H           4.2503   14.9085   30.3053 H       1  LIG1        0.0232
     67 H           4.1063   16.3506   29.7077 H       1  LIG1        0.0232
     68 H           4.3034   16.1588   31.2515 H       1  LIG1        0.0232
@<TRIPOS>BOND
     1    56    53    1
     2    54    53    1
     3    53    55    1
     4    53    36    1
     5    45    44    1
     6    44    36   ar
     7    44    20   ar
     8    36    15   ar
     9    21    20    1
    10    20     9   ar
    11    15    16    1
    12    15     6   ar
    13     9     6   ar
    14     9    23    1
    15     6     4    1
    16    24    23    1
    17    23    25    1
    18    23    22    1
    19     4     1    2
    20     4    10    1
    21    29    26    1
    22    27    26    1
    23    26    22    1
    24    26    28    1
    25    22    10    1
    26    22     7    1
    27    11    10    1
    28    10    12    1
    29     7     8    1
    30     7    18    2
    31    14    12    1
    32    12    13    1
    33    12    17    1
    34    19    18    1
    35    18     5    1
    36     3    17    2
    37    17    41    1
    38     2     5    2
    39     5    30    1
    40    42    41    1
    41    41    43    1
    42    41    50    1
    43    32    30    1
    44    30    31    1
    45    30    33    1
    46    52    50    1
    47    51    50    1
    48    50    39    1
    49    34    33    1
    50    33    35    1
    51    33    37    1
    52    67    65    1
    53    39    40    1
    54    39    65    1
    55    39    61    1
    56    66    65    1
    57    65    68    1
    58    59    57    1
    59    38    37    1
    60    37    57    1
    61    37    46    1
    62    62    61    1
    63    57    58    1
    64    57    60    1
    65    63    61    1
    66    61    64    1
    67    47    46    1
    68    46    48    1
    69    46    49    1
