@<TRIPOS>MOLECULE
N-isocyano-dibenzo-7-azanorbornadiene
 27 30 0 0 0
SMALL
GASTEIGER

@<TRIPOS>ATOM
      1 C          -1.1197    0.8402    1.8319 C.3     1  LIG1        0.1283
      2 N          -0.1511    1.4842    1.7850 N.3     1  LIG1       -0.1448
      3 N           0.9999    2.2161    1.5711 N.3     1  LIG1       -0.2014
      4 C           0.7386    3.7052    1.8147 C.3     1  LIG1        0.0782
      5 H           0.0760    4.1488    1.2112 H       1  LIG1        0.0577
      6 C           0.4207    3.7182    3.3131 C.ar    1  LIG1       -0.0195
      7 C          -0.4034    4.5045    4.0865 C.ar    1  LIG1       -0.0564
      8 H          -0.9214    5.2018    3.7003 H       1  LIG1        0.0621
      9 C          -0.4533    4.2428    5.4612 C.ar    1  LIG1       -0.0614
     10 H          -1.0260    4.7619    6.0151 H       1  LIG1        0.0618
     11 C           0.3187    3.2387    6.0291 C.ar    1  LIG1       -0.0614
     12 H           0.2732    3.0884    6.9660 H       1  LIG1        0.0618
     13 C           1.1650    2.4425    5.2428 C.ar    1  LIG1       -0.0564
     14 H           1.6954    1.7552    5.6290 H       1  LIG1        0.0621
     15 C           1.1956    2.6974    3.8853 C.ar    1  LIG1       -0.0195
     16 C           1.9819    2.0608    2.7365 C.3     1  LIG1        0.0782
     17 H           2.3487    1.1445    2.8968 H       1  LIG1        0.0577
     18 C           2.9628    3.1150    2.2363 C.ar    1  LIG1       -0.0195
     19 C           4.3445    3.1837    2.2568 C.ar    1  LIG1       -0.0564
     20 H           4.8684    2.4901    2.6397 H       1  LIG1        0.0621
     21 C           4.9381    4.3158    1.6888 C.ar    1  LIG1       -0.0614
     22 H           5.8846    4.3944    1.6953 H       1  LIG1        0.0618
     23 C           4.1780    5.3286    1.1144 C.ar    1  LIG1       -0.0614
     24 H           4.6101    6.0883    0.7422 H       1  LIG1        0.0618
     25 C           2.7745    5.2383    1.0810 C.ar    1  LIG1       -0.0564
     26 H           2.2468    5.9151    0.6723 H       1  LIG1        0.0621
     27 C           2.1929    4.1309    1.6616 C.ar    1  LIG1       -0.0195
@<TRIPOS>BOND
     1    26    25    1
     2    24    23    1
     3    25    23   ar
     4    25    27   ar
     5    23    21   ar
     6     5     4    1
     7     3     2    1
     8     3     4    1
     9     3    16    1
    10    27     4    1
    11    27    18   ar
    12    21    22    1
    13    21    19   ar
    14     2     1    1
    15     4     6    1
    16    18    19   ar
    17    18    16    1
    18    19    20    1
    19    16    17    1
    20    16    15    1
    21     6    15   ar
    22     6     7   ar
    23     8     7    1
    24    15    13   ar
    25     7     9   ar
    26    13    14    1
    27    13    11   ar
    28     9    10    1
    29     9    11   ar
    30    11    12    1
