@<TRIPOS>MOLECULE
C22 H13 N O3
 39 42 0 0 0
SMALL
GASTEIGER

@<TRIPOS>ATOM
      1 O           1.7008   -0.5599    5.3143 O.2     1  LIG1       -0.2879
      2 O           3.1477    5.6710    9.0873 O.2     1  LIG1       -0.2449
      3 O           2.5997    3.7695    8.0551 O.3     1  LIG1       -0.4412
      4 N           6.8796   11.2481    5.4206 N.1     1  LIG1       -0.1909
      5 C           1.9832    0.5379    5.7840 C.2     1  LIG1        0.1787
      6 C           1.0319    1.6598    5.7464 C.2     1  LIG1       -0.0145
      7 H           0.1633    1.5209    5.3866 H       1  LIG1        0.0654
      8 C           1.3621    2.8617    6.2045 C.2     1  LIG1       -0.0288
      9 H           0.7031    3.5449    6.1987 H       1  LIG1        0.0619
     10 C           2.7282    3.1888    6.7308 C.3     1  LIG1        0.1773
     11 C           3.6291    1.9917    6.8614 C.2     1  LIG1       -0.0288
     12 H           4.4792    2.1043    7.2704 H       1  LIG1        0.0619
     13 C           3.2863    0.7843    6.4292 C.2     1  LIG1       -0.0145
     14 H           3.8940    0.0631    6.5381 H       1  LIG1        0.0654
     15 C           3.3583    4.3103    5.9073 C.2     1  LIG1        0.0253
     16 C           3.5748    5.3797    6.6932 C.2     1  LIG1        0.0743
     17 C           3.1129    5.0370    8.0673 C.2     1  LIG1        0.3416
     18 C           3.5539    4.1230    4.4527 C.ar    1  LIG1       -0.0166
     19 C           4.4256    3.1479    3.9681 C.ar    1  LIG1       -0.0542
     20 H           4.9178    2.6056    4.5735 H       1  LIG1        0.0624
     21 C           4.5722    2.9711    2.5944 C.ar    1  LIG1       -0.0612
     22 H           5.1670    2.3071    2.2656 H       1  LIG1        0.0618
     23 C           3.8606    3.7528    1.7089 C.ar    1  LIG1       -0.0617
     24 H           3.9601    3.6233    0.7727 H       1  LIG1        0.0618
     25 C           2.9964    4.7325    2.1897 C.ar    1  LIG1       -0.0612
     26 H           2.5129    5.2762    1.5797 H       1  LIG1        0.0618
     27 C           2.8377    4.9179    3.5534 C.ar    1  LIG1       -0.0542
     28 H           2.2428    5.5842    3.8766 H       1  LIG1        0.0624
     29 C           4.2199    6.6717    6.3897 C.ar    1  LIG1       -0.0106
     30 C           5.0881    6.7859    5.2982 C.ar    1  LIG1       -0.0526
     31 H           5.2228    6.0395    4.7250 H       1  LIG1        0.0624
     32 C           5.7509    7.9703    5.0449 C.ar    1  LIG1       -0.0438
     33 H           6.3333    8.0386    4.2978 H       1  LIG1        0.0631
     34 C           5.5659    9.0632    5.8823 C.ar    1  LIG1        0.0518
     35 C           4.6921    8.9712    6.9665 C.ar    1  LIG1       -0.0438
     36 H           4.5565    9.7202    7.5340 H       1  LIG1        0.0631
     37 C           4.0241    7.7849    7.2117 C.ar    1  LIG1       -0.0526
     38 H           3.4260    7.7268    7.9471 H       1  LIG1        0.0624
     39 C           6.2879   10.2832    5.6272 C.1     1  LIG1        0.0992
@<TRIPOS>BOND
     1    24    23    1
     2    26    25    1
     3    23    25   ar
     4    23    21   ar
     5    25    27   ar
     6    22    21    1
     7    21    19   ar
     8    27    28    1
     9    27    18   ar
    10    19    18   ar
    11    19    20    1
    12    33    32    1
    13    18    15    1
    14    31    30    1
    15    32    30   ar
    16    32    34   ar
    17    30    29   ar
    18     1     5    2
    19     7     6    1
    20     4    39    3
    21    39    34    1
    22     6     5    1
    23     6     8    2
    24     5    13    1
    25    34    35   ar
    26    15    16    2
    27    15    10    1
    28     9     8    1
    29     8    10    1
    30    29    16    1
    31    29    37   ar
    32    13    14    1
    33    13    11    2
    34    16    17    1
    35    10    11    1
    36    10     3    1
    37    11    12    1
    38    35    37   ar
    39    35    36    1
    40    37    38    1
    41     3    17    1
    42    17     2    2
