@<TRIPOS>MOLECULE
C15 H12 N2 O3
 32 34 0 0 0
SMALL
GASTEIGER

@<TRIPOS>ATOM
      1 O           4.6371    0.5064  -11.3767 O.2     1  LIG1       -0.1261
      2 O           6.0592   -0.6947  -10.2893 O.2     1  LIG1       -0.1261
      3 O           2.0729   -1.8146   -4.7477 O.2     1  LIG1       -0.2696
      4 N           4.9538   -0.1790  -10.4090 N.pl3   1  LIG1        0.0564
      5 N           1.0072   -0.9917   -6.5686 N.am    1  LIG1       -0.2669
      6 C           3.9532   -0.4142   -9.3751 C.ar    1  LIG1        0.1266
      7 C           2.7221    0.2063   -9.4839 C.ar    1  LIG1       -0.0265
      8 H           2.5249    0.7643  -10.2012 H       1  LIG1        0.0644
      9 C           1.8007   -0.0328   -8.4895 C.ar    1  LIG1       -0.0223
     10 C           2.1168   -0.8690   -7.4189 C.ar    1  LIG1        0.0399
     11 C           1.0314   -1.4950   -5.2955 C.2     1  LIG1        0.2508
     12 C          -0.2925   -1.6341   -4.6039 C.ar    1  LIG1        0.0372
     13 C          -1.2924   -2.4453   -5.1194 C.ar    1  LIG1       -0.0496
     14 H          -1.1630   -2.8860   -5.9278 H       1  LIG1        0.0625
     15 C          -2.4853   -2.5992   -4.4298 C.ar    1  LIG1       -0.0610
     16 H          -3.1517   -3.1533   -4.7682 H       1  LIG1        0.0618
     17 C          -2.6801   -1.9295   -3.2414 C.ar    1  LIG1       -0.0617
     18 H          -3.4903   -2.0131   -2.7912 H       1  LIG1        0.0618
     19 C           0.4193    0.5291   -8.2975 C.3     1  LIG1       -0.0096
     20 H          -0.0981    0.4705   -9.1158 H       1  LIG1        0.0329
     21 H           0.4564    1.4551   -8.0116 H       1  LIG1        0.0329
     22 C          -0.1741   -0.3587   -7.2082 C.3     1  LIG1        0.0241
     23 H          -0.6737    0.1688   -6.5650 H       1  LIG1        0.0472
     24 H          -0.7622   -1.0292   -7.5891 H       1  LIG1        0.0472
     25 C          -1.6846   -1.1394   -2.7170 C.ar    1  LIG1       -0.0610
     26 H          -1.8192   -0.6955   -1.9106 H       1  LIG1        0.0618
     27 C          -0.4775   -1.0027   -3.3938 C.ar    1  LIG1       -0.0496
     28 H           0.2042   -0.4861   -3.0287 H       1  LIG1        0.0625
     29 C           3.3603   -1.4723   -7.3111 C.ar    1  LIG1       -0.0378
     30 H           3.5685   -2.0147   -6.5848 H       1  LIG1        0.0637
     31 C           4.2818   -1.2441   -8.3173 C.ar    1  LIG1       -0.0297
     32 H           5.1195   -1.6474   -8.2827 H       1  LIG1        0.0641
@<TRIPOS>BOND
     1     1     4    2
     2     4     2    2
     3     4     6    1
     4     8     7    1
     5     7     6   ar
     6     7     9   ar
     7     6    31   ar
     8    20    19    1
     9     9    19    1
    10     9    10   ar
    11    31    32    1
    12    31    29   ar
    13    19    21    1
    14    19    22    1
    15    24    22    1
    16    10    29   ar
    17    10     5    1
    18    29    30    1
    19    22     5    1
    20    22    23    1
    21     5    11   am
    22    14    13    1
    23    11     3    2
    24    11    12    1
    25    13    12   ar
    26    13    15   ar
    27    16    15    1
    28    12    27   ar
    29    15    17   ar
    30    27    28    1
    31    27    25   ar
    32    17    18    1
    33    17    25   ar
    34    25    26    1
