@<TRIPOS>MOLECULE
C24 H22 N2 O2
 50 54 0 0 0
SMALL
GASTEIGER

@<TRIPOS>ATOM
      1 O           7.5390    7.8555    6.4549 O.3     1  LIG1       -0.3602
      2 O           6.0647    3.9936    5.4025 O.2     1  LIG1       -0.2737
      3 N           8.3597    3.8625    5.5791 N.am    1  LIG1       -0.2657
      4 N           5.8900    7.6946    4.8441 N.pl3   1  LIG1       -0.3061
      5 C           6.9490    6.2312    3.4533 C.ar    1  LIG1       -0.0029
      6 C           8.9990    5.9669    4.9295 C.ar    1  LIG1       -0.0025
      7 C           9.4558    4.7225    5.3621 C.ar    1  LIG1        0.0413
      8 C           6.0098    7.2596    3.5494 C.ar    1  LIG1        0.0360
      9 C           7.2912    5.7011    2.2306 C.ar    1  LIG1       -0.0554
     10 H           7.9419    5.0395    2.1676 H       1  LIG1        0.0621
     11 C           7.1719    4.4903    5.2916 C.2     1  LIG1        0.2393
     12 C           7.4902    5.9271    4.8406 C.3     1  LIG1        0.1431
     13 C           9.8950    6.9667    4.6096 C.ar    1  LIG1       -0.0553
     14 H           9.5960    7.7978    4.3183 H       1  LIG1        0.0621
     15 C           6.6424    6.1749    1.0806 C.ar    1  LIG1       -0.0613
     16 H           6.8603    5.8280    0.2457 H       1  LIG1        0.0618
     17 C           8.8491    2.4245    7.5416 C.ar    1  LIG1       -0.0297
     18 C           5.3365    7.7246    2.4198 C.ar    1  LIG1       -0.0403
     19 H           4.6856    8.3857    2.4850 H       1  LIG1        0.0636
     20 C          11.2649    6.7013    4.7336 C.ar    1  LIG1       -0.0613
     21 H          11.8846    7.3609    4.5192 H       1  LIG1        0.0618
     22 C           5.6735    7.1640    1.1929 C.ar    1  LIG1       -0.0600
     23 H           5.2383    7.4595    0.4260 H       1  LIG1        0.0618
     24 C           8.3040    3.2975    8.4825 C.ar    1  LIG1       -0.0571
     25 H           7.7093    3.9594    8.2124 H       1  LIG1        0.0621
     26 C          10.8086    4.4456    5.5023 C.ar    1  LIG1       -0.0400
     27 H          11.1057    3.6171    5.8025 H       1  LIG1        0.0636
     28 C          11.7026    5.4628    5.1737 C.ar    1  LIG1       -0.0600
     29 H          12.6160    5.3062    5.2520 H       1  LIG1        0.0618
     30 C           6.7092    6.9572    5.7547 C.3     1  LIG1        0.1467
     31 H           6.1417    6.4708    6.3885 H       1  LIG1        0.0826
     32 C           8.4576    2.4970    6.0800 C.3     1  LIG1        0.0449
     33 H           9.1146    2.0150    5.5538 H       1  LIG1        0.0518
     34 H           7.6020    2.0558    5.9609 H       1  LIG1        0.0518
     35 C           9.7273    1.4314    7.9699 C.ar    1  LIG1       -0.0571
     36 H          10.0901    0.8405    7.3501 H       1  LIG1        0.0621
     37 C           5.0834    8.8118    5.2668 C.3     1  LIG1        0.0031
     38 H           5.4625    9.6263    4.9286 H       1  LIG1        0.0428
     39 H           5.0592    8.8441    6.2260 H       1  LIG1        0.0428
     40 H           4.1913    8.7089    4.9275 H       1  LIG1        0.0428
     41 C           7.9585    7.2995    7.7007 C.3     1  LIG1        0.0388
     42 H           8.4836    6.5122    7.5390 H       1  LIG1        0.0524
     43 H           7.1875    7.0682    8.2237 H       1  LIG1        0.0524
     44 H           8.4868    7.9441    8.1771 H       1  LIG1        0.0524
     45 C           9.5350    2.1919   10.2361 C.ar    1  LIG1       -0.0617
     46 H           9.7703    2.1217   11.1332 H       1  LIG1        0.0618
     47 C           8.6493    3.1788    9.8254 C.ar    1  LIG1       -0.0615
     48 H           8.2851    3.7633   10.4505 H       1  LIG1        0.0618
     49 C          10.0672    1.3132    9.3108 C.ar    1  LIG1       -0.0615
     50 H          10.6518    0.6443    9.5860 H       1  LIG1        0.0618
@<TRIPOS>BOND
     1    16    15    1
     2    23    22    1
     3    15    22   ar
     4    15     9   ar
     5    22    18   ar
     6    10     9    1
     7     9     5   ar
     8    18    19    1
     9    18     8   ar
    10     5     8   ar
    11     5    12    1
    12     8     4    1
    13    14    13    1
    14    21    20    1
    15    13    20   ar
    16    13     6   ar
    17    20    28   ar
    18    12     6    1
    19    12    11    1
    20    12    30    1
    21     4    37    1
    22     4    30    1
    23    40    37    1
    24    38    37    1
    25     6     7   ar
    26    28    29    1
    27    28    26   ar
    28    37    39    1
    29    11     2    2
    30    11     3   am
    31     7    26   ar
    32     7     3    1
    33    26    27    1
    34    33    32    1
    35     3    32    1
    36    30    31    1
    37    30     1    1
    38    34    32    1
    39    32    17    1
    40     1    41    1
    41    36    35    1
    42    42    41    1
    43    17    35   ar
    44    17    24   ar
    45    41    44    1
    46    41    43    1
    47    35    49   ar
    48    25    24    1
    49    24    47   ar
    50    49    50    1
    51    49    45   ar
    52    47    45   ar
    53    47    48    1
    54    45    46    1
