@<TRIPOS>MOLECULE
C19 H22 O3
 44 47 0 0 0
SMALL
GASTEIGER

@<TRIPOS>ATOM
      1 O           2.1996    2.6918    3.2972 O.3     1  LIG1       -0.3353
      2 O           0.4935    3.5680    1.9668 O.3     1  LIG1       -0.4251
      3 O          -1.1187    2.9958    0.5318 O.2     1  LIG1       -0.2449
      4 C           1.9353    3.3599    2.0919 C.3     1  LIG1        0.2373
      5 C           2.6434    4.6987    2.1965 C.3     1  LIG1        0.0249
      6 H           2.1407    5.3996    1.7114 H       1  LIG1        0.0338
      7 H           3.5572    4.6418    1.8195 H       1  LIG1        0.0338
      8 C           2.6950    5.0124    3.7128 C.3     1  LIG1        0.0006
      9 C           2.2350    3.6761    4.3436 C.3     1  LIG1        0.0581
     10 H           2.8669    3.3976    5.0528 H       1  LIG1        0.0567
     11 H           1.3365    3.7795    4.7458 H       1  LIG1        0.0567
     12 C           1.7343    6.1471    4.0926 C.3     1  LIG1       -0.0451
     13 H           1.9518    6.9503    3.5563 H       1  LIG1        0.0271
     14 H           0.8077    5.8765    3.8700 H       1  LIG1        0.0271
     15 C           1.8101    6.5005    5.5776 C.3     1  LIG1       -0.0525
     16 H           1.2077    7.2628    5.7657 H       1  LIG1        0.0265
     17 H           1.5043    5.7285    6.1154 H       1  LIG1        0.0265
     18 C           3.2326    6.8673    5.9825 C.3     1  LIG1       -0.0530
     19 H           3.2645    7.0263    6.9591 H       1  LIG1        0.0265
     20 H           3.4962    7.7071    5.5281 H       1  LIG1        0.0265
     21 C           4.2204    5.7634    5.6168 C.3     1  LIG1       -0.0525
     22 H           4.0374    4.9634    6.1715 H       1  LIG1        0.0265
     23 H           5.1408    6.0678    5.8164 H       1  LIG1        0.0265
     24 C           4.1218    5.3873    4.1369 C.3     1  LIG1       -0.0451
     25 H           4.7234    4.6218    3.9568 H       1  LIG1        0.0271
     26 H           4.4313    6.1501    3.5884 H       1  LIG1        0.0271
     27 C           2.2641    2.4823    0.9385 C.2     1  LIG1        0.0014
     28 H           3.1369    2.1664    0.7369 H       1  LIG1        0.0645
     29 C           1.1761    2.1949    0.2212 C.2     1  LIG1        0.0684
     30 C           0.0363    2.9195    0.8667 C.2     1  LIG1        0.3422
     31 C           1.0730    1.3302   -0.9657 C.ar    1  LIG1       -0.0111
     32 C           2.2219    0.6960   -1.4675 C.ar    1  LIG1       -0.0536
     33 H           3.0588    0.8421   -1.0426 H       1  LIG1        0.0624
     34 C           2.1571   -0.1358   -2.5673 C.ar    1  LIG1       -0.0583
     35 H           2.9500   -0.5484   -2.8888 H       1  LIG1        0.0620
     36 C           0.9469   -0.3797   -3.2142 C.ar    1  LIG1       -0.0504
     37 C          -0.1907    0.2431   -2.7164 C.ar    1  LIG1       -0.0583
     38 H          -1.0265    0.0874   -3.1398 H       1  LIG1        0.0620
     39 C          -0.1370    1.0864   -1.6164 C.ar    1  LIG1       -0.0536
     40 H          -0.9323    1.5018   -1.3029 H       1  LIG1        0.0624
     41 C           0.8814   -1.3023   -4.4054 C.3     1  LIG1       -0.0397
     42 H           1.7598   -1.3388   -4.8392 H       1  LIG1        0.0278
     43 H           0.2170   -0.9675   -5.0421 H       1  LIG1        0.0278
     44 H           0.6261   -2.2014   -4.1090 H       1  LIG1        0.0278
@<TRIPOS>BOND
     1    43    41    1
     2    42    41    1
     3    41    44    1
     4    41    36    1
     5    36    37   ar
     6    36    34   ar
     7    38    37    1
     8    35    34    1
     9    37    39   ar
    10    34    32   ar
    11    39    40    1
    12    39    31   ar
    13    32    33    1
    14    32    31   ar
    15    31    29    1
    16    29    30    1
    17    29    27    2
    18     3    30    2
    19    28    27    1
    20    30     2    1
    21    27     4    1
    22     6     5    1
    23     7     5    1
    24     2     4    1
    25     4     5    1
    26     4     1    1
    27     5     8    1
    28     1     9    1
    29    13    12    1
    30    26    24    1
    31     8    12    1
    32     8    24    1
    33     8     9    1
    34    14    12    1
    35    25    24    1
    36    12    15    1
    37    24    21    1
    38     9    11    1
    39     9    10    1
    40    20    18    1
    41    15    16    1
    42    15    18    1
    43    15    17    1
    44    21    23    1
    45    21    18    1
    46    21    22    1
    47    18    19    1
