@<TRIPOS>MOLECULE
ethyl 2-(4-chlorophenyl)-3-methyl-2,3-dihydro-1H-cyclopenta[c]quinoline-4-carboxylate
 46 49 0 0 0
SMALL
GASTEIGER

@<TRIPOS>ATOM
      1 CL         -4.9099   -1.8335   10.3453 Cl      1  LIG1       -0.0835
      2 O           1.9049    3.4539    8.9308 O.3     1  LIG1       -0.4604
      3 O           3.5980    4.4564    7.8560 O.2     1  LIG1       -0.2432
      4 N           3.7262    2.3298    6.1423 N.ar    1  LIG1       -0.2398
      5 C           1.5792    0.5349    5.9585 C.ar    1  LIG1       -0.0319
      6 C           1.5924    1.5131    6.9277 C.ar    1  LIG1       -0.0078
      7 C           2.6978    2.4068    6.9745 C.ar    1  LIG1        0.1519
      8 C           4.8580    1.2481    4.3399 C.ar    1  LIG1       -0.0357
      9 H           5.5762    1.8644    4.4255 H       1  LIG1        0.0639
     10 C           4.9014    0.2729    3.3791 C.ar    1  LIG1       -0.0597
     11 H           5.6507    0.2209    2.7979 H       1  LIG1        0.0618
     12 C           3.8450   -0.6596    3.2402 C.ar    1  LIG1       -0.0611
     13 H           3.8946   -1.3289    2.5675 H       1  LIG1        0.0618
     14 C           2.7502   -0.6065    4.0662 C.ar    1  LIG1       -0.0523
     15 H           2.0478   -1.2378    3.9659 H       1  LIG1        0.0624
     16 C           2.6700    0.3955    5.0731 C.ar    1  LIG1        0.0039
     17 C           3.7360    1.3360    5.2086 C.ar    1  LIG1        0.0722
     18 C           0.3177   -0.2853    6.0219 C.3     1  LIG1       -0.0193
     19 H           0.4764   -1.1562    6.4646 H       1  LIG1        0.0319
     20 H          -0.0556   -0.4428    5.1187 H       1  LIG1        0.0319
     21 C          -0.6162    0.6117    6.8670 C.3     1  LIG1       -0.0052
     22 H          -1.0274    1.2793    6.2463 H       1  LIG1        0.0358
     23 C           0.3564    1.3921    7.8062 C.3     1  LIG1       -0.0091
     24 H          -0.0124    2.2958    8.0235 H       1  LIG1        0.0353
     25 C          -1.7457   -0.0530    7.6207 C.ar    1  LIG1       -0.0433
     26 C          -1.9218   -1.4353    7.6975 C.ar    1  LIG1       -0.0569
     27 H          -1.3620   -2.0054    7.1840 H       1  LIG1        0.0621
     28 C          -2.9037   -1.9947    8.5147 C.ar    1  LIG1       -0.0431
     29 H          -3.0104   -2.9377    8.5628 H       1  LIG1        0.0632
     30 C          -3.7222   -1.1594    9.2550 C.ar    1  LIG1        0.0410
     31 C          -3.6070    0.2245    9.1581 C.ar    1  LIG1       -0.0431
     32 H          -4.1940    0.7924    9.6435 H       1  LIG1        0.0632
     33 C          -2.6246    0.7581    8.3449 C.ar    1  LIG1       -0.0569
     34 H          -2.5449    1.7025    8.2757 H       1  LIG1        0.0621
     35 C           0.6870    0.6209    9.0894 C.3     1  LIG1       -0.0578
     36 H          -0.1175    0.5483    9.6435 H       1  LIG1        0.0236
     37 H           1.3841    1.0978    9.5867 H       1  LIG1        0.0236
     38 H           1.0064   -0.2763    8.8586 H       1  LIG1        0.0236
     39 C           2.8032    3.5532    7.9488 C.2     1  LIG1        0.3580
     40 C           1.8708    4.5419    9.8907 C.3     1  LIG1        0.0900
     41 H           1.7843    5.4110    9.4241 H       1  LIG1        0.0695
     42 H           2.7013    4.5534   10.4295 H       1  LIG1        0.0695
     43 C           0.6774    4.2999   10.7719 C.3     1  LIG1       -0.0306
     44 H          -0.1335    4.2679   10.2220 H       1  LIG1        0.0262
     45 H           0.6007    5.0261   11.4250 H       1  LIG1        0.0262
     46 H           0.7866    3.4473   11.2427 H       1  LIG1        0.0262
@<TRIPOS>BOND
     1    13    12    1
     2    11    10    1
     3    12    10   ar
     4    12    14   ar
     5    10     8   ar
     6    15    14    1
     7    14    16   ar
     8     8     9    1
     9     8    17   ar
    10    16    17   ar
    11    16     5   ar
    12    20    18    1
    13    17     4   ar
    14     5    18    1
    15     5     6   ar
    16    18    19    1
    17    18    21    1
    18     4     7   ar
    19    22    21    1
    20    21    25    1
    21    21    23    1
    22     6     7   ar
    23     6    23    1
    24     7    39    1
    25    27    26    1
    26    25    26   ar
    27    25    33   ar
    28    26    28   ar
    29    23    24    1
    30    23    35    1
    31     3    39    2
    32    39     2    1
    33    34    33    1
    34    33    31   ar
    35    28    29    1
    36    28    30   ar
    37    38    35    1
    38     2    40    1
    39    35    37    1
    40    35    36    1
    41    31    30   ar
    42    31    32    1
    43    30     1    1
    44    41    40    1
    45    40    42    1
    46    40    43    1
    47    44    43    1
    48    43    46    1
    49    43    45    1
