@<TRIPOS>MOLECULE
C17 H13 F2 N O2
 35 37 0 0 0
SMALL
GASTEIGER

@<TRIPOS>ATOM
      1 F           1.0138   12.6902    9.1924 F       1  LIG1       -0.1859
      2 F          -0.6048   13.4956    7.9923 F       1  LIG1       -0.1859
      3 O           2.4979   12.2711    7.1246 O.3     1  LIG1       -0.4605
      4 N           0.0223   10.5386    6.8265 N.ar    1  LIG1       -0.2444
      5 O           1.0236   13.4192    5.8797 O.2     1  LIG1       -0.2436
      6 C          -1.6548    9.3519    8.7805 C.ar    1  LIG1       -0.0068
      7 C          -1.1190   10.6479    8.9650 C.ar    1  LIG1        0.0104
      8 C          -0.4941    9.2718    6.6208 C.ar    1  LIG1        0.0721
      9 C          -0.2791   11.1638    7.9241 C.ar    1  LIG1        0.1290
     10 C           1.3207   12.7975    6.8556 C.2     1  LIG1        0.3839
     11 C          -1.3465    8.6537    7.5486 C.ar    1  LIG1        0.0081
     12 C          -1.4223   11.3568   10.1494 C.ar    1  LIG1       -0.0521
     13 C          -1.8398    7.3732    7.2331 C.ar    1  LIG1       -0.0520
     14 C          -2.6922    9.5057   10.9491 C.ar    1  LIG1       -0.0611
     15 C           0.3525   12.5318    8.0137 C.3     1  LIG1        0.3847
     16 C          -0.1142    8.5979    5.4489 C.ar    1  LIG1       -0.0357
     17 C          -0.5866    7.3478    5.1876 C.ar    1  LIG1       -0.0597
     18 C          -2.1898   10.7927   11.1154 C.ar    1  LIG1       -0.0611
     19 C          -1.4682    6.7434    6.0737 C.ar    1  LIG1       -0.0611
     20 C          -2.4339    8.8021    9.8085 C.ar    1  LIG1       -0.0533
     21 C           3.5129   12.3890    6.0869 C.3     1  LIG1        0.0899
     22 C           4.7820   11.8991    6.6655 C.3     1  LIG1       -0.0306
     23 H          -1.0915   12.2181   10.2677 H       1  LIG1        0.0624
     24 H          -2.3814   11.2678   11.8917 H       1  LIG1        0.0618
     25 H          -3.2088    9.1218   11.6205 H       1  LIG1        0.0618
     26 H          -2.7797    7.9443    9.7117 H       1  LIG1        0.0624
     27 H           0.4641    9.0082    4.8472 H       1  LIG1        0.0639
     28 H          -0.3200    6.9000    4.4173 H       1  LIG1        0.0618
     29 H          -1.8106    5.9011    5.8784 H       1  LIG1        0.0618
     30 H          -2.4247    6.9494    7.8186 H       1  LIG1        0.0624
     31 H           3.2680   11.8569    5.3139 H       1  LIG1        0.0694
     32 H           3.6046   13.3137    5.8089 H       1  LIG1        0.0694
     33 H           5.4836   11.9841    6.0148 H       1  LIG1        0.0262
     34 H           5.0011   12.4180    7.4427 H       1  LIG1        0.0262
     35 H           4.6853   10.9776    6.9143 H       1  LIG1        0.0262
@<TRIPOS>BOND
     1    28    17    1
     2    27    16    1
     3    17    16   ar
     4    17    19   ar
     5    31    21    1
     6    16     8   ar
     7    32    21    1
     8    29    19    1
     9     5    10    2
    10    33    22    1
    11    19    13   ar
    12    21    22    1
    13    21     3    1
    14     8     4   ar
    15     8    11   ar
    16    22    35    1
    17    22    34    1
    18     4     9   ar
    19    10     3    1
    20    10    15    1
    21    13    11   ar
    22    13    30    1
    23    11     6   ar
    24     9    15    1
    25     9     7   ar
    26     2    15    1
    27    15     1    1
    28     6     7   ar
    29     6    20   ar
    30     7    12   ar
    31    26    20    1
    32    20    14   ar
    33    12    23    1
    34    12    18   ar
    35    14    18   ar
    36    14    25    1
    37    18    24    1
