@<TRIPOS>MOLECULE
7121679.cif
 115 122 0 0 0
SMALL
GASTEIGER

@<TRIPOS>ATOM
      1 P          -9.3006    2.4825    2.1072 P.3     1  LIG1        0.0000
      2 C          -7.9631    3.7084    2.3474 C.ar    1  LIG1        0.0000
      3 C          -7.3184    4.3338    1.2394 C.ar    1  LIG1        0.0000
      4 H          -7.5331    4.0300    0.3655 H       1  LIG1        0.0000
      5 C          -6.4037    5.3523    1.3692 C.ar    1  LIG1        0.0000
      6 H          -6.0039    5.7259    0.5916 H       1  LIG1        0.0000
      7 C          -6.0496    5.8480    2.6392 C.ar    1  LIG1        0.0000
      8 H          -5.4216    6.5520    2.7489 H       1  LIG1        0.0000
      9 C          -6.3429    5.7855    6.3466 C.ar    1  LIG1        0.0000
     10 H          -5.6933    6.4781    6.3682 H       1  LIG1        0.0000
     11 C          -6.9052    5.2537    7.4919 C.ar    1  LIG1        0.0000
     12 H          -6.6245    5.5819    8.3371 H       1  LIG1        0.0000
     13 C          -7.8735    4.2484    7.4429 C.ar    1  LIG1        0.0000
     14 H          -8.2051    3.9154    8.2674 H       1  LIG1        0.0000
     15 C          -8.3983    3.6837    6.2392 C.ar    1  LIG1        0.0000
     16 C          -7.7707    4.2214    5.1225 C.ar    1  LIG1        0.0000
     17 C          -7.6272    4.2158    3.5809 C.ar    1  LIG1        0.0000
     18 C          -6.6581    5.2587    3.6964 C.ar    1  LIG1        0.0000
     19 C          -6.7928    5.2377    5.1839 C.ar    1  LIG1        0.0000
     20 C          -8.6470    0.7953    1.7481 C.ar    1  LIG1        0.0000
     21 C          -7.3016    0.3669    1.6868 C.ar    1  LIG1        0.0000
     22 C          -7.0242   -0.9839    1.4647 C.ar    1  LIG1        0.0000
     23 H          -6.1180   -1.2666    1.4281 H       1  LIG1        0.0000
     24 C          -8.0268   -1.9237    1.2957 C.ar    1  LIG1        0.0000
     25 C          -9.3435   -1.5059    1.3669 C.ar    1  LIG1        0.0000
     26 H         -10.0404   -2.1394    1.2416 H       1  LIG1        0.0000
     27 C          -9.6684   -0.1724    1.6198 C.ar    1  LIG1        0.0000
     28 C          -6.1135    1.2812    1.8436 C.3     1  LIG1        0.0000
     29 H          -5.2889    0.7523    1.8219 H       1  LIG1        0.0000
     30 H          -6.1767    1.7551    2.6999 H       1  LIG1        0.0000
     31 H          -6.1029    1.9319    1.1116 H       1  LIG1        0.0000
     32 C          -7.6902   -3.3845    1.0702 C.3     1  LIG1        0.0000
     33 H          -7.1104   -3.4684    0.2845 H       1  LIG1        0.0000
     34 H          -8.5161   -3.8912    0.9232 H       1  LIG1        0.0000
     35 H          -7.2263   -3.7372    1.8577 H       1  LIG1        0.0000
     36 C         -11.1280    0.1797    1.7332 C.3     1  LIG1        0.0000
     37 H         -11.6636   -0.6406    1.7296 H       1  LIG1        0.0000
     38 H         -11.3876    0.7419    0.9741 H       1  LIG1        0.0000
     39 H         -11.2818    0.6674    2.5699 H       1  LIG1        0.0000
     40 C          -9.9969    3.1220    0.5138 C.ar    1  LIG1        0.0000
     41 C          -9.8069    2.6039   -0.7898 C.ar    1  LIG1        0.0000
     42 C         -10.5253    3.1376   -1.8492 C.ar    1  LIG1        0.0000
     43 H         -10.3965    2.7651   -2.7131 H       1  LIG1        0.0000
     44 C         -11.4189    4.1857   -1.7106 C.ar    1  LIG1        0.0000
     45 C         -11.5430    4.7379   -0.4358 C.ar    1  LIG1        0.0000
     46 H         -12.1101    5.4906   -0.3146 H       1  LIG1        0.0000
     47 C         -10.8669    4.2278    0.6570 C.ar    1  LIG1        0.0000
     48 C          -8.7988    1.5170   -1.1288 C.3     1  LIG1        0.0000
     49 H          -9.1457    0.6470   -0.8384 H       1  LIG1        0.0000
     50 H          -7.9537    1.7008   -0.6689 H       1  LIG1        0.0000
     51 H          -8.6473    1.5006   -2.0970 H       1  LIG1        0.0000
     52 C         -12.1926    4.7180   -2.8885 C.3     1  LIG1        0.0000
     53 H         -13.0320    4.2185   -2.9806 H       1  LIG1        0.0000
     54 H         -11.6598    4.6127   -3.7041 H       1  LIG1        0.0000
     55 H         -12.3901    5.6666   -2.7489 H       1  LIG1        0.0000
     56 C         -11.0117    4.9460    1.9864 C.3     1  LIG1        0.0000
     57 H         -10.1899    5.4450    2.1780 H       1  LIG1        0.0000
     58 H         -11.1677    4.2888    2.6961 H       1  LIG1        0.0000
     59 H         -11.7694    5.5658    1.9425 H       1  LIG1        0.0000
     60 B          -9.6585    2.6421    6.2959 B       1  LIG1        0.0000
     61 C          -9.2959    1.1487    5.6155 C.ar    1  LIG1        0.0000
     62 F          -6.9947    1.6302    5.1326 F       1  LIG1        0.0000
     63 C          -8.0406    0.7625    5.1954 C.ar    1  LIG1        0.0000
     64 F          -6.4212   -0.8150    4.4919 F       1  LIG1        0.0000
     65 C          -7.6857   -0.5327    4.8289 C.ar    1  LIG1        0.0000
     66 F          -8.3120   -2.7852    4.5075 F       1  LIG1        0.0000
     67 C          -8.6305   -1.5237    4.8485 C.ar    1  LIG1        0.0000
     68 F         -10.8234   -2.1886    5.3759 F       1  LIG1        0.0000
     69 C          -9.8913   -1.2094    5.2990 C.ar    1  LIG1        0.0000
     70 F         -11.4173    0.2299    6.2117 F       1  LIG1        0.0000
     71 C         -10.2021    0.0550    5.6722 C.ar    1  LIG1        0.0000
     72 C          -9.9873    2.1429    7.8700 C.ar    1  LIG1        0.0000
     73 F          -7.7584    1.3561    8.0922 F       1  LIG1        0.0000
     74 C          -8.9954    1.4915    8.5965 C.ar    1  LIG1        0.0000
     75 F          -8.1783    0.3072   10.4880 F       1  LIG1        0.0000
     76 C          -9.1935    0.9172    9.8493 C.ar    1  LIG1        0.0000
     77 F         -10.6337    0.4477   11.6301 F       1  LIG1        0.0000
     78 C         -10.4231    0.9784   10.4168 C.ar    1  LIG1        0.0000
     79 F         -12.6785    1.6680   10.2981 F       1  LIG1        0.0000
     80 C         -11.4530    1.6016    9.7475 C.ar    1  LIG1        0.0000
     81 F         -12.3125    2.6931    7.9121 F       1  LIG1        0.0000
     82 C         -11.2237    2.1511    8.5008 C.ar    1  LIG1        0.0000
     83 N         -13.0288    3.2027    4.5531 N.pl3   1  LIG1        0.0000
     84 N         -11.7702    4.4799    5.7915 N.pl3   1  LIG1        0.0000
     85 C         -12.9338    4.3600    5.1850 C.3     1  LIG1        0.0000
     86 H         -13.5936    5.0459    5.1737 H       1  LIG1        0.0000
     87 C         -11.8524    2.5491    4.7830 C.2     1  LIG1        0.0000
     88 H         -11.6364    1.6954    4.4257 H       1  LIG1        0.0000
     89 C         -11.0281    3.2725    5.5878 C.2     1  LIG1        0.0000
     90 C         -14.2410    2.6598    3.8443 C.3     1  LIG1        0.0000
     91 C         -13.9690    2.7758    2.3382 C.3     1  LIG1        0.0000
     92 H         -13.9132    3.7222    2.0876 H       1  LIG1        0.0000
     93 H         -14.6977    2.3494    1.8408 H       1  LIG1        0.0000
     94 H         -13.1228    2.3310    2.1234 H       1  LIG1        0.0000
     95 C         -14.3985    1.2176    4.2279 C.3     1  LIG1        0.0000
     96 H         -13.6283    0.7076    3.9038 H       1  LIG1        0.0000
     97 H         -15.2193    0.8611    3.8285 H       1  LIG1        0.0000
     98 H         -14.4526    1.1436    5.2039 H       1  LIG1        0.0000
     99 C         -15.4392    3.4648    4.2298 C.3     1  LIG1        0.0000
    100 H         -15.4604    3.5728    5.2039 H       1  LIG1        0.0000
    101 H         -16.2512    3.0031    3.9340 H       1  LIG1        0.0000
    102 H         -15.3904    4.3459    3.8040 H       1  LIG1        0.0000
    103 C         -11.4179    5.7848    6.4886 C.3     1  LIG1        0.0000
    104 C         -10.3171    6.4620    5.6781 C.3     1  LIG1        0.0000
    105 H         -10.1278    7.3450    6.0592 H       1  LIG1        0.0000
    106 H         -10.6115    6.5634    4.7479 H       1  LIG1        0.0000
    107 H          -9.5064    5.9128    5.7050 H       1  LIG1        0.0000
    108 C         -10.9785    5.4714    7.9119 C.3     1  LIG1        0.0000
    109 H         -10.2437    4.8234    7.8925 H       1  LIG1        0.0000
    110 H         -11.7330    5.0950    8.4125 H       1  LIG1        0.0000
    111 H         -10.6751    6.2948    8.3484 H       1  LIG1        0.0000
    112 C         -12.6271    6.6966    6.5529 C.3     1  LIG1        0.0000
    113 H         -13.3628    6.2325    7.0051 H       1  LIG1        0.0000
    114 H         -12.9030    6.9378    5.6447 H       1  LIG1        0.0000
    115 H         -12.3979    7.5082    7.0522 H       1  LIG1        0.0000
@<TRIPOS>BOND
     1    54    52    1
     2    53    52    1
     3    52    55    1
     4    52    44    1
     5    43    42    1
     6    51    48    1
     7    42    44   ar
     8    42    41   ar
     9    44    45   ar
    10    48    49    1
    11    48    41    1
    12    48    50    1
    13    41    40   ar
    14    45    46    1
    15    45    47   ar
    16    33    32    1
    17     4     3    1
    18    40    47   ar
    19    40     1    1
    20     6     5    1
    21    47    56    1
    22    34    32    1
    23    38    36    1
    24    32    24    1
    25    32    35    1
    26    31    28    1
    27     3     5   ar
    28     3     2   ar
    29    26    25    1
    30    24    25   ar
    31    24    22   ar
    32    25    27   ar
    33     5     7   ar
    34    23    22    1
    35    22    21   ar
    36    27    36    1
    37    27    20   ar
    38    21    20   ar
    39    21    28    1
    40    37    36    1
    41    36    39    1
    42    20     1    1
    43    29    28    1
    44    93    91    1
    45    28    30    1
    46    59    56    1
    47    56    57    1
    48    56    58    1
    49    92    91    1
    50     1     2    1
    51    94    91    1
    52    91    90    1
    53     2    17   ar
    54     7     8    1
    55     7    18   ar
    56    17    18   ar
    57    17    16    1
    58    18    19    1
    59   102    99    1
    60    97    95    1
    61    90    95    1
    62    90    99    1
    63    90    83    1
    64    96    95    1
    65   101    99    1
    66    95    98    1
    67    99   100    1
    68    88    87    1
    69    64    65    1
    70    66    67    1
    71    83    87    1
    72    83    85    1
    73   106   104    1
    74    87    89    2
    75    65    67   ar
    76    65    63   ar
    77    67    69   ar
    78    16    19   ar
    79    16    15   ar
    80    62    63    1
    81    86    85    1
    82    19     9   ar
    83    85    84    1
    84    63    61   ar
    85    69    68    1
    86    69    71   ar
    87    89    84    1
    88    89    60    1
    89    61    71   ar
    90    61    60    1
    91   114   112    1
    92    71    70    1
    93   104   107    1
    94   104   105    1
    95   104   103    1
    96    84   103    1
    97    15    60    1
    98    15    13   ar
    99    60    72    1
   100     9    10    1
   101     9    11   ar
   102   103   112    1
   103   103   108    1
   104   112   113    1
   105   112   115    1
   106    13    11   ar
   107    13    14    1
   108    11    12    1
   109    72    82   ar
   110    72    74   ar
   111   109   108    1
   112   108   111    1
   113   108   110    1
   114    81    82    1
   115    73    74    1
   116    82    80   ar
   117    74    76   ar
   118    80    79    1
   119    80    78   ar
   120    76    78   ar
   121    76    75    1
   122    78    77    1
