@<TRIPOS>MOLECULE
C38 H30 N2 O6 S2
 39 40 0 0 0
SMALL
GASTEIGER

@<TRIPOS>ATOM
      1 S           0.1798    2.7951    9.9604 S.O2    1  LIG1        0.0093
      2 O           1.2902    2.2489    9.2234 O.2     1  LIG1       -0.1686
      3 O          -0.7689    1.9265   10.5860 O.2     1  LIG1       -0.1686
      4 O           2.7511    4.5277   19.4907 O.3     1  LIG1       -0.4951
      5 N           0.0500    5.0004   14.6193 N.pl3   1  LIG1       -0.2725
      6 C           0.8623    3.8600   11.2002 C.ar    1  LIG1        0.0908
      7 C          -1.3618    5.1014   14.6805 C.2     1  LIG1        0.0203
      8 C           0.5115    5.8134   16.8653 C.ar    1  LIG1       -0.0366
      9 H          -0.0978    6.5003   16.7189 H       1  LIG1        0.0637
     10 C          -0.6948    3.8799    8.8725 C.3     1  LIG1        0.1815
     11 C          -3.4457    4.5605   15.7799 C.2     1  LIG1       -0.0603
     12 H          -3.9056    4.0851   16.4337 H       1  LIG1        0.0618
     13 C          -2.0506    5.9223   13.7893 C.3     1  LIG1        0.0150
     14 H          -1.5998    6.3626   13.1052 H       1  LIG1        0.0374
     15 C           2.1098    4.4322   10.9880 C.ar    1  LIG1       -0.0367
     16 H           2.5712    4.2917   10.1928 H       1  LIG1        0.0636
     17 C           1.1344    5.7124   18.0994 C.ar    1  LIG1       -0.0182
     18 H           0.9285    6.3124   18.7796 H       1  LIG1        0.0655
     19 C           0.1493    4.0565   12.3775 C.ar    1  LIG1       -0.0151
     20 H          -0.6920    3.6760   12.4897 H       1  LIG1        0.0655
     21 C           2.0648    4.7118   18.3095 C.ar    1  LIG1        0.1202
     22 C           2.6454    5.2153   11.9894 C.ar    1  LIG1       -0.0582
     23 H           3.4752    5.6153   11.8619 H       1  LIG1        0.0619
     24 C           1.9679    5.4168   13.1833 C.ar    1  LIG1       -0.0399
     25 H           2.3491    5.9420   13.8494 H       1  LIG1        0.0636
     26 C           1.7168    3.9152   16.0681 C.ar    1  LIG1       -0.0366
     27 H           1.9132    3.3051   15.3942 H       1  LIG1        0.0637
     28 C           0.7749    4.9158   15.8463 C.ar    1  LIG1        0.0387
     29 C           0.7171    4.8342   13.3886 C.ar    1  LIG1        0.0403
     30 C           2.3626    3.8257   17.2915 C.ar    1  LIG1       -0.0182
     31 H           3.0017    3.1639   17.4282 H       1  LIG1        0.0655
     32 C          -2.0721    4.4073   15.6588 C.2     1  LIG1       -0.0438
     33 H          -1.6204    3.8354   16.2365 H       1  LIG1        0.0633
     34 C          -4.1381    5.4123   14.9401 C.2     1  LIG1       -0.0617
     35 H          -5.0537    5.5407   15.0390 H       1  LIG1        0.0618
     36 C           2.6101    5.5407   20.4749 C.3     1  LIG1        0.0788
     37 H           2.8310    6.3925   20.0914 H       1  LIG1        0.0660
     38 H           3.2005    5.3576   21.2094 H       1  LIG1        0.0660
     39 H           1.7033    5.5569   20.7896 H       1  LIG1        0.0660
@<TRIPOS>BOND
     1    10     1    1
     2     2     1    2
     3     1     3    2
     4     1     6    1
     5    16    15    1
     6    15     6   ar
     7    15    22   ar
     8     6    19   ar
     9    23    22    1
    10    22    24   ar
    11    19    20    1
    12    19    29   ar
    13    14    13    1
    14    24    29   ar
    15    24    25    1
    16    29     5    1
    17    13     7    1
    18     5     7    1
    19     5    28    1
    20     7    32    2
    21    34    35    1
    22    34    11    2
    23    27    26    1
    24    32    11    1
    25    32    33    1
    26    11    12    1
    27    28    26   ar
    28    28     8   ar
    29    26    30   ar
    30     9     8    1
    31     8    17   ar
    32    30    31    1
    33    30    21   ar
    34    17    21   ar
    35    17    18    1
    36    21     4    1
    37     4    36    1
    38    37    36    1
    39    36    39    1
    40    36    38    1
