@<TRIPOS>MOLECULE
3(C7 H F13 O), 2(H2 O)
 72 70 0 0 0
SMALL
GASTEIGER

@<TRIPOS>ATOM
      1 F           7.7117    8.8247    7.5844 F       1  LIG1       -0.1951
      2 F           7.1041   10.5454    6.3850 F       1  LIG1       -0.1951
      3 F           7.2350   11.2011    8.9077 F       1  LIG1       -0.1921
      4 F           6.0946    9.4603    9.5425 F       1  LIG1       -0.1921
      5 F           5.1862   12.1965    7.5807 F       1  LIG1       -0.1920
      6 F           4.5573   11.6156    9.5872 F       1  LIG1       -0.1920
      7 F           2.7908   11.1266    7.4791 F       1  LIG1       -0.1921
      8 F           3.3953    9.4183    8.6799 F       1  LIG1       -0.1921
      9 F           3.2324    8.7668    6.1410 F       1  LIG1       -0.1951
     10 F           4.3967   10.5020    5.5173 F       1  LIG1       -0.1951
     11 F           6.3170    9.0819    4.3621 F       1  LIG1       -0.1672
     12 F           7.0616    7.3867    5.4500 F       1  LIG1       -0.1672
     13 F           5.0372    7.4043    4.7598 F       1  LIG1       -0.1672
     14 O           5.2206    7.6935    7.4801 O.3     1  LIG1       -0.3708
     15 H           5.8600    7.3177    7.6347 H       1  LIG1        0.2109
     16 C           5.5500    8.7501    6.6325 C.3     1  LIG1        0.2998
     17 C           6.6756    9.6236    7.2653 C.3     1  LIG1        0.3591
     18 C           6.2477   10.3578    8.5524 C.3     1  LIG1        0.3812
     19 C           4.9484   11.1499    8.3926 C.3     1  LIG1        0.3838
     20 C           3.8188   10.3142    7.7792 C.3     1  LIG1        0.3812
     21 C           4.2496    9.5798    6.4901 C.3     1  LIG1        0.3591
     22 C           5.9917    8.1705    5.2582 C.3     1  LIG1        0.4302
     23 F           7.6670    2.8781    7.8446 F       2  LIG2       -0.1951
     24 F           7.0741    1.2075    6.5730 F       2  LIG2       -0.1951
     25 F           7.1097    0.4770    9.0783 F       2  LIG2       -0.1921
     26 F           5.9643    2.2089    9.7254 F       2  LIG2       -0.1921
     27 F           5.0971   -0.4561    7.6438 F       2  LIG2       -0.1920
     28 F           4.4006    0.0639    9.6407 F       2  LIG2       -0.1920
     29 F           2.7208    0.6586    7.5074 F       2  LIG2       -0.1921
     30 F           3.3219    2.3210    8.7747 F       2  LIG2       -0.1921
     31 F           3.2355    3.0463    6.2482 F       2  LIG2       -0.1951
     32 F           4.4077    1.3200    5.6126 F       2  LIG2       -0.1951
     33 F           5.1286    4.4378    4.9768 F       2  LIG2       -0.1672
     34 F           6.3782    2.7449    4.5667 F       2  LIG2       -0.1672
     35 F           7.1338    4.3857    5.7386 F       2  LIG2       -0.1672
     36 O           5.2041    4.0538    7.6892 O.3     2  LIG2       -0.3708
     37 H           5.7840    4.4743    7.8371 H       2  LIG2        0.2109
     38 C           5.5381    3.0203    6.8232 C.3     2  LIG2        0.2998
     39 C           6.6252    2.1079    7.4631 C.3     2  LIG2        0.3591
     40 C           6.1523    1.3461    8.7168 C.3     2  LIG2        0.3812
     41 C           4.8451    0.5667    8.4804 C.3     2  LIG2        0.3838
     42 C           3.7544    1.4393    7.8536 C.3     2  LIG2        0.3812
     43 C           4.2313    2.2118    6.6037 C.3     2  LIG2        0.3591
     44 C           6.0500    3.6373    5.4862 C.3     2  LIG2        0.4302
     45 F           2.1575    6.5826   13.8208 F       3  LIG3       -0.1951
     46 F           0.9207    7.6412   12.3740 F       3  LIG3       -0.1951
     47 F          -0.2471    5.4375   11.5679 F       3  LIG3       -0.1921
     48 F          -0.2620    5.5834   13.7343 F       3  LIG3       -0.1921
     49 F           0.1402    3.0648   12.5978 F       3  LIG3       -0.1920
     50 F           1.6665    3.7999   13.9741 F       3  LIG3       -0.1920
     51 F           1.6081    3.6431   10.4905 F       3  LIG3       -0.1921
     52 F           2.8244    2.5622   11.9386 F       3  LIG3       -0.1921
     53 F           4.0623    4.6065   10.5864 F       3  LIG3       -0.1951
     54 F           4.0233    4.7377   12.7624 F       3  LIG3       -0.1951
     55 F           4.5240    7.2999   12.7025 F       3  LIG3       -0.1672
     56 F           4.6054    7.2290   10.5560 F       3  LIG3       -0.1672
     57 F           3.2564    8.5819   11.5347 F       3  LIG3       -0.1672
     58 O           2.0174    6.4175   10.3045 O.3     3  LIG3       -0.3708
     59 H           2.5145    6.3054    9.7021 H       3  LIG3        0.2109
     60 C           2.6721    6.2840   11.5240 C.3     3  LIG3        0.2998
     61 C           1.5808    6.4996   12.6036 C.3     3  LIG3        0.3591
     62 C           0.5258    5.3725   12.6680 C.3     3  LIG3        0.3812
     63 C           1.1237    3.9677   12.7545 C.3     3  LIG3        0.3838
     64 C           2.2069    3.7274   11.6928 C.3     3  LIG3        0.3812
     65 C           3.2709    4.8463   11.6526 C.3     3  LIG3        0.3591
     66 C           3.7870    7.3665   11.6052 C.3     3  LIG3        0.4302
     67 O           7.0686    5.9125    8.3357 O.3     4  HOH4       -0.4105
     68 H           7.6771    5.8916    7.9565 H       0  HOH0        0.2052
     69 H           7.2737    5.9628    9.1224 H       0  HOH0        0.2052
     70 O           2.9116    5.9189    7.8678 O.3     5  HOH5       -0.4105
     71 H           3.3149    5.2241    7.6986 H       0  HOH0        0.2052
     72 H           3.3048    6.4611    7.5217 H       0  HOH0        0.2052
@<TRIPOS>BOND
     1    11    22    1
     2    34    44    1
     3    13    22    1
     4    33    44    1
     5    22    12    1
     6    22    16    1
     7    44    35    1
     8    44    38    1
     9    10    21    1
    10    32    43    1
    11     9    21    1
    12    31    43    1
    13     2    17    1
    14    21    16    1
    15    21    20    1
    16    24    39    1
    17    43    38    1
    18    43    42    1
    19    16    17    1
    20    16    14    1
    21    38    39    1
    22    38    36    1
    23    17     1    1
    24    17    18    1
    25    39    23    1
    26    39    40    1
    27     7    20    1
    28    14    15    1
    29    29    42    1
    30    72    70    1
    31     5    19    1
    32    27    41    1
    33    36    37    1
    34    71    70    1
    35    20    19    1
    36    20     8    1
    37    42    41    1
    38    42    30    1
    39    68    67    1
    40    67    69    1
    41    19    18    1
    42    19     6    1
    43    41    40    1
    44    41    28    1
    45    18     3    1
    46    18     4    1
    47    40    25    1
    48    40    26    1
    49    59    58    1
    50    58    60    1
    51    51    64    1
    52    56    66    1
    53    53    65    1
    54    60    66    1
    55    60    65    1
    56    60    61    1
    57    57    66    1
    58    47    62    1
    59    66    55    1
    60    65    64    1
    61    65    54    1
    62    64    52    1
    63    64    63    1
    64    46    61    1
    65    49    63    1
    66    61    62    1
    67    61    45    1
    68    62    63    1
    69    62    48    1
    70    63    50    1
