@<TRIPOS>MOLECULE
C21 H16 O8
 90 100 0 0 0
SMALL
GASTEIGER

@<TRIPOS>ATOM
      1 O           2.1556    5.9203    3.0916 O.3     1  LIG1       -0.3117
      2 O           3.1669    4.4581    5.2185 O.3     1  LIG1       -0.4523
      3 O           1.8919    2.5723    1.5814 O.3     1  LIG1       -0.4250
      4 O           2.8674    0.6025    1.4878 O.2     1  LIG1       -0.2028
      5 O           4.2014    2.3497    1.6450 O.3     1  LIG1       -0.4250
      6 O           4.4777    5.6920    3.1764 O.3     1  LIG1       -0.3117
      7 O           1.4998    3.1467    5.9598 O.2     1  LIG1       -0.2449
      8 O           3.3976    5.8935    1.1392 O.3     1  LIG1       -0.3117
      9 O           6.2768   12.6928    4.8177 O.3     2  LIG2       -0.4523
     10 O           6.9001   11.7849    2.1540 O.3     2  LIG2       -0.3117
     11 O           9.2816   15.1873    3.3857 O.3     2  LIG2       -0.4250
     12 O           7.6249   15.3719    1.7651 O.3     2  LIG2       -0.4250
     13 O           9.1098   12.0237    1.5055 O.3     2  LIG2       -0.3117
     14 O           8.6133   11.5909    3.7249 O.3     2  LIG2       -0.3117
     15 O           8.3080   17.1065    2.9284 O.2     2  LIG2       -0.2028
     16 O           4.6418   14.2073    4.5645 O.2     2  LIG2       -0.2449
     17 C           3.5771   10.5479    2.8120 C.ar    1  LIG1       -0.0617
     18 H           3.5907   11.4745    2.8847 H       1  LIG1        0.0618
     19 C           3.7864    9.9481    1.5936 C.ar    1  LIG1       -0.0613
     20 H           3.9598   10.4716    0.8449 H       1  LIG1        0.0618
     21 C           3.7411    8.5637    1.4724 C.ar    1  LIG1       -0.0510
     22 H           3.8695    8.1632    0.6431 H       1  LIG1        0.0623
     23 C           3.5046    7.7835    2.5920 C.ar    1  LIG1        0.0409
     24 C           3.3865    6.2850    2.4954 C.3     1  LIG1        0.3158
     25 C           1.9551    4.4939    3.1202 C.3     1  LIG1        0.1433
     26 H           1.0930    4.2809    3.5351 H       1  LIG1        0.0674
     27 C           3.0944    3.8618    3.9136 C.3     1  LIG1        0.1628
     28 H           2.9974    2.8885    3.9678 H       1  LIG1        0.0789
     29 C           2.2261    4.0939    6.1212 C.2     1  LIG1        0.3396
     30 C           2.1938    5.0354    7.2660 C.ar    1  LIG1        0.0590
     31 C           3.0610    6.1120    7.3409 C.ar    1  LIG1       -0.0478
     32 H           3.7287    6.2176    6.7030 H       1  LIG1        0.0626
     33 C           2.9338    7.0301    8.3644 C.ar    1  LIG1       -0.0610
     34 H           3.5210    7.7501    8.4161 H       1  LIG1        0.0618
     35 C           1.9474    6.8874    9.3062 C.ar    1  LIG1       -0.0617
     36 H           1.8504    7.5226    9.9782 H       1  LIG1        0.0618
     37 C           3.3454    9.7661    3.9296 C.ar    1  LIG1       -0.0613
     38 H           3.2061   10.1686    4.7561 H       1  LIG1        0.0618
     39 C           3.3206    8.3876    3.8223 C.ar    1  LIG1       -0.0510
     40 H           3.1795    7.8660    4.5790 H       1  LIG1        0.0623
     41 C           1.9762    4.0199    1.6648 C.3     1  LIG1        0.1659
     42 H           1.2158    4.4134    1.1890 H       1  LIG1        0.0790
     43 C           2.9816    1.7914    1.5659 C.2     1  LIG1        0.5110
     44 C           4.3870    3.7831    1.7539 C.3     1  LIG1        0.1659
     45 H           5.2419    4.0274    1.3415 H       1  LIG1        0.0790
     46 C           4.3822    4.2550    3.2123 C.3     1  LIG1        0.1433
     47 H           5.1517    3.8791    3.6890 H       1  LIG1        0.0674
     48 C           1.1131    5.8208    9.2561 C.ar    1  LIG1       -0.0610
     49 H           0.4542    5.7169    9.9042 H       1  LIG1        0.0618
     50 C           1.2374    4.8834    8.2442 C.ar    1  LIG1       -0.0478
     51 H           0.6711    4.1456    8.2259 H       1  LIG1        0.0626
     52 C           3.2628    4.4795    1.0105 C.3     1  LIG1        0.1435
     53 H           3.2722    4.2224    0.0639 H       1  LIG1        0.0674
     54 C           2.8462   10.9021    7.8965 C.ar    2  LIG2       -0.0617
     55 H           2.3478   10.3883    8.4901 H       2  LIG2        0.0618
     56 C           2.2488   11.9461    7.2172 C.ar    2  LIG2       -0.0610
     57 H           1.3484   12.1331    7.3534 H       2  LIG2        0.0618
     58 C           2.9893   12.7162    6.3317 C.ar    2  LIG2       -0.0478
     59 H           2.5931   13.4349    5.8929 H       2  LIG2        0.0626
     60 C           4.3266   12.4088    6.1029 C.ar    2  LIG2        0.0590
     61 C           5.0647   13.2135    5.0945 C.2     2  LIG2        0.3396
     62 C           7.0875   13.4494    3.8984 C.3     2  LIG2        0.1628
     63 H           7.0190   14.4070    4.0941 H       2  LIG2        0.0789
     64 C           6.7106   13.1790    2.4454 C.3     2  LIG2        0.1433
     65 H           5.7797   13.4389    2.2808 H       2  LIG2        0.0674
     66 C           8.2242   11.3526    2.3844 C.3     2  LIG2        0.3158
     67 C           8.2691    9.8713    2.1346 C.ar    2  LIG2        0.0409
     68 C           9.3647    9.2805    1.5203 C.ar    2  LIG2       -0.0510
     69 H          10.0849    9.8012    1.2471 H       2  LIG2        0.0623
     70 C           9.3797    7.9111    1.3158 C.ar    2  LIG2       -0.0613
     71 H          10.1138    7.5130    0.9074 H       2  LIG2        0.0618
     72 C           8.3096    7.1314    1.7153 C.ar    2  LIG2       -0.0617
     73 H           8.3201    6.2134    1.5636 H       2  LIG2        0.0618
     74 C           4.1842   10.6216    7.6935 C.ar    2  LIG2       -0.0610
     75 H           4.5877    9.9309    8.1678 H       2  LIG2        0.0618
     76 C           4.9276   11.3633    6.7879 C.ar    2  LIG2       -0.0478
     77 H           5.8236   11.1610    6.6405 H       2  LIG2        0.0626
     78 C           8.5138   12.9778    4.0833 C.3     2  LIG2        0.1433
     79 H           8.7918   13.1048    5.0145 H       2  LIG2        0.0674
     80 C           9.4388   13.7663    3.1446 C.3     2  LIG2        0.1659
     81 H          10.3699   13.5071    3.3087 H       2  LIG2        0.0790
     82 C           8.4036   15.9388    2.6988 C.2     2  LIG2        0.5110
     83 C           7.6534   13.9435    1.5041 C.3     2  LIG2        0.1659
     84 H           7.3851   13.7791    0.5764 H       2  LIG2        0.0790
     85 C           9.0681   13.4377    1.7112 C.3     2  LIG2        0.1435
     86 H           9.6811   13.8873    1.0932 H       2  LIG2        0.0674
     87 C           7.2244    7.7170    2.3407 C.ar    2  LIG2       -0.0613
     88 H           6.5076    7.1914    2.6147 H       2  LIG2        0.0618
     89 C           7.2031    9.0858    2.5600 C.ar    2  LIG2       -0.0510
     90 H           6.4782    9.4778    2.9907 H       2  LIG2        0.0623
@<TRIPOS>BOND
     1    53    52    1
     2    84    83    1
     3    22    21    1
     4    20    19    1
     5    71    70    1
     6    52     8    1
     7    52    41    1
     8    52    44    1
     9    86    85    1
    10     8    24    1
    11    42    41    1
    12    69    68    1
    13    70    68   ar
    14    70    72   ar
    15    45    44    1
    16    21    19   ar
    17    21    23   ar
    18     4    43    2
    19    83    85    1
    20    83    12    1
    21    83    64    1
    22    13    85    1
    23    13    66    1
    24    68    67   ar
    25    73    72    1
    26    43     3    1
    27    43     5    1
    28     3    41    1
    29    19    17   ar
    30     5    44    1
    31    41    25    1
    32    85    80    1
    33    72    87   ar
    34    44    46    1
    35    12    82    1
    36    67    66    1
    37    67    89   ar
    38    10    66    1
    39    10    64    1
    40    65    64    1
    41    87    89   ar
    42    87    88    1
    43    66    14    1
    44    64    62    1
    45    24    23    1
    46    24     1    1
    47    24     6    1
    48    89    90    1
    49    23    39   ar
    50    82    15    2
    51    82    11    1
    52    17    18    1
    53    17    37   ar
    54     1    25    1
    55    25    26    1
    56    25    27    1
    57    80    81    1
    58    80    11    1
    59    80    78    1
    60     6    46    1
    61    46    47    1
    62    46    27    1
    63    14    78    1
    64    39    37   ar
    65    39    40    1
    66    62    78    1
    67    62    63    1
    68    62     9    1
    69    27    28    1
    70    27     2    1
    71    37    38    1
    72    78    79    1
    73    16    61    2
    74     9    61    1
    75    61    60    1
    76     2    29    1
    77    59    58    1
    78     7    29    2
    79    60    58   ar
    80    60    76   ar
    81    29    30    1
    82    58    56   ar
    83    77    76    1
    84    32    31    1
    85    76    74   ar
    86    56    57    1
    87    56    54   ar
    88    30    31   ar
    89    30    50   ar
    90    31    33   ar
    91    74    54   ar
    92    74    75    1
    93    54    55    1
    94    51    50    1
    95    50    48   ar
    96    33    34    1
    97    33    35   ar
    98    48    35   ar
    99    48    49    1
   100    35    36    1
