@<TRIPOS>MOLECULE
(3,3-diiodo-3-nitropropyl)benzene
 23 23 0 0 0
SMALL
GASTEIGER

@<TRIPOS>ATOM
      1 I          -0.6276   13.6162    2.1912 I       1  LIG1       -0.0352
      2 I           2.1417   12.8662    4.2657 I       1  LIG1       -0.0352
      3 O          -0.4252   11.4266    5.1443 O.2     1  LIG1       -0.1296
      4 O          -1.0655   10.4271    3.3901 O.2     1  LIG1       -0.1296
      5 N          -0.3709   11.2148    3.9759 N.pl3   1  LIG1        0.0483
      6 C           0.5871   12.0130    3.0600 C.3     1  LIG1        0.2207
      7 C           2.3194    9.0390    1.3124 C.ar    1  LIG1       -0.0472
      8 C           1.1307   11.1445    1.9596 C.3     1  LIG1       -0.0004
      9 H           1.6997   11.6981    1.3674 H       1  LIG1        0.0309
     10 H           0.3733   10.8063    1.4175 H       1  LIG1        0.0309
     11 C           1.4593    7.9903    1.0195 C.ar    1  LIG1       -0.0586
     12 H           0.7067    7.8148    1.5713 H       1  LIG1        0.0620
     13 C           1.7238    7.1757   -0.1278 C.ar    1  LIG1       -0.0615
     14 H           1.1259    6.4805   -0.3738 H       1  LIG1        0.0618
     15 C           2.8460    7.4121   -0.8576 C.ar    1  LIG1       -0.0617
     16 H           3.0381    6.8644   -1.6101 H       1  LIG1        0.0618
     17 C           3.7025    8.4269   -0.5292 C.ar    1  LIG1       -0.0615
     18 H           4.4841    8.5732   -1.0486 H       1  LIG1        0.0618
     19 C           3.4331    9.2426    0.5615 C.ar    1  LIG1       -0.0586
     20 H           4.0311    9.9472    0.7832 H       1  LIG1        0.0620
     21 C           1.9558    9.9461    2.4597 C.3     1  LIG1       -0.0239
     22 H           2.7808   10.2714    2.8982 H       1  LIG1        0.0314
     23 H           1.4315    9.4393    3.1296 H       1  LIG1        0.0314
@<TRIPOS>BOND
     1    16    15    1
     2    18    17    1
     3    15    17   ar
     4    15    13   ar
     5    17    19   ar
     6    14    13    1
     7    13    11   ar
     8    19    20    1
     9    19     7   ar
    10    11     7   ar
    11    11    12    1
    12     7    21    1
    13     9     8    1
    14    10     8    1
    15     8    21    1
    16     8     6    1
    17     1     6    1
    18    21    22    1
    19    21    23    1
    20     6     5    1
    21     6     2    1
    22     4     5    2
    23     5     3    2
