@<TRIPOS>MOLECULE
?
 83 88 0 0 0
SMALL
GASTEIGER

@<TRIPOS>ATOM
      1 P           1.4669    3.1824    0.2642 P.3     1  LIG1        1.0000
      2 O           2.6240    2.8080    1.1895 O.3     1  LIG1        0.0000
      3 C           0.6829    5.0933   -1.6115 C.3     1  LIG1        0.0000
      4 H           0.8855    5.9683   -2.0045 H       1  LIG1        0.0000
      5 H           0.7059    4.4093   -2.3115 H       1  LIG1        0.0000
      6 H          -0.2099    5.1147   -1.2069 H       1  LIG1        0.0000
      7 B           3.7504    3.6353    1.8687 B       1  LIG1        0.0000
      8 C           4.8711    4.1565    0.8186 C.2     1  LIG1        0.0000
      9 C           5.1511    5.4475    1.1318 C.2     1  LIG1        0.0000
     10 C           6.2096    6.3272    0.5626 C.ar    1  LIG1        0.0000
     11 C           5.9977    7.0097   -0.6344 C.ar    1  LIG1        0.0000
     12 H           5.1903    6.8726   -1.1161 H       1  LIG1        0.0000
     13 C           6.9525    7.8854   -1.1295 C.ar    1  LIG1        0.0000
     14 H           6.7969    8.3448   -1.9471 H       1  LIG1        0.0000
     15 C           8.1265    8.0909   -0.4371 C.ar    1  LIG1        0.0000
     16 H           8.7814    8.6884   -0.7785 H       1  LIG1        0.0000
     17 C          -0.3081    1.9475    1.9883 C.3     1  LIG1        0.0000
     18 H          -1.1583    2.0220    2.4712 H       1  LIG1        0.0000
     19 H          -0.3443    1.1792    1.3810 H       1  LIG1        0.0000
     20 H           0.4215    1.8231    2.6300 H       1  LIG1        0.0000
     21 C          -0.0668    3.2218    1.1840 C.3     1  LIG1        0.0000
     22 H          -0.0525    3.9970    1.8008 H       1  LIG1        0.0000
     23 H          -0.8178    3.3531    0.5528 H       1  LIG1        0.0000
     24 C           1.3218    1.9117   -0.9845 C.3     1  LIG1        0.0000
     25 H           1.0593    1.0634   -0.5470 H       1  LIG1        0.0000
     26 H           0.5986    2.1631   -1.6124 H       1  LIG1        0.0000
     27 C           2.6053    1.6816   -1.7769 C.3     1  LIG1        0.0000
     28 H           2.4574    0.9766   -2.4416 H       1  LIG1        0.0000
     29 H           2.8613    2.5103   -2.2331 H       1  LIG1        0.0000
     30 H           3.3225    1.4107   -1.1667 H       1  LIG1        0.0000
     31 C           3.3095    5.0355    2.5533 C.3     1  LIG1        0.0000
     32 C           4.2611    5.9521    2.2314 C.3     1  LIG1        0.0000
     33 C           4.5800    7.2058    2.9678 C.ar    1  LIG1        0.0000
     34 C           4.8834    8.4172    2.3363 C.ar    1  LIG1        0.0000
     35 H           4.8404    8.4750    1.3886 H       1  LIG1        0.0000
     36 C           5.2445    9.5349    3.0708 C.ar    1  LIG1        0.0000
     37 H           5.4417   10.3487    2.6233 H       1  LIG1        0.0000
     38 C           5.3200    9.4763    4.4480 C.ar    1  LIG1        0.0000
     39 H           5.5652   10.2474    4.9491 H       1  LIG1        0.0000
     40 C           5.0363    8.2862    5.0926 C.ar    1  LIG1        0.0000
     41 H           5.0941    8.2363    6.0394 H       1  LIG1        0.0000
     42 C           4.6670    7.1696    4.3626 C.ar    1  LIG1        0.0000
     43 H           4.4688    6.3590    4.8200 H       1  LIG1        0.0000
     44 C           5.5629    3.3075   -0.1705 C.ar    1  LIG1        0.0000
     45 C           5.6866    1.9341    0.0769 C.ar    1  LIG1        0.0000
     46 H           5.3381    1.5771    0.8856 H       1  LIG1        0.0000
     47 C           6.3012    1.0855   -0.8234 C.ar    1  LIG1        0.0000
     48 H           6.3626    0.1592   -0.6302 H       1  LIG1        0.0000
     49 C           6.8290    1.5793   -2.0045 C.ar    1  LIG1        0.0000
     50 H           7.2682    0.9983   -2.6137 H       1  LIG1        0.0000
     51 C           6.7077    2.9263   -2.2857 C.ar    1  LIG1        0.0000
     52 H           7.0588    3.2735   -3.0967 H       1  LIG1        0.0000
     53 C           6.0732    3.7742   -1.3881 C.ar    1  LIG1        0.0000
     54 H           5.9838    4.6951   -1.6057 H       1  LIG1        0.0000
     55 C           8.3489    7.4271    0.7517 C.ar    1  LIG1        0.0000
     56 H           9.1581    7.5707    1.2289 H       1  LIG1        0.0000
     57 C           7.3963    6.5518    1.2553 C.ar    1  LIG1        0.0000
     58 H           7.5544    6.1022    2.0782 H       1  LIG1        0.0000
     59 C           2.1691    5.2283    3.4654 C.ar    1  LIG1        0.0000
     60 C           1.6533    4.1514    4.1889 C.ar    1  LIG1        0.0000
     61 H           2.0864    3.3061    4.1410 H       1  LIG1        0.0000
     62 C           0.5222    4.2914    4.9749 C.ar    1  LIG1        0.0000
     63 H           0.1948    3.5448    5.4656 H       1  LIG1        0.0000
     64 C          -0.1330    5.5003    5.0543 C.ar    1  LIG1        0.0000
     65 H          -0.9140    5.5885    5.5870 H       1  LIG1        0.0000
     66 C           0.3571    6.5789    4.3504 C.ar    1  LIG1        0.0000
     67 H          -0.0838    7.4188    4.4069 H       1  LIG1        0.0000
     68 C           1.4889    6.4462    3.5624 C.ar    1  LIG1        0.0000
     69 H           1.8092    7.1982    3.0785 H       1  LIG1        0.0000
     70 C           4.4060    2.6760    3.0044 C.ar    1  LIG1        0.0000
     71 C           5.5129    3.0952    3.7485 C.ar    1  LIG1        0.0000
     72 H           5.8575    3.9680    3.6112 H       1  LIG1        0.0000
     73 C           6.1198    2.2691    4.6817 C.ar    1  LIG1        0.0000
     74 H           6.8710    2.5827    5.1700 H       1  LIG1        0.0000
     75 C           5.6430    0.9915    4.9099 C.ar    1  LIG1        0.0000
     76 H           6.0675    0.4232    5.5411 H       1  LIG1        0.0000
     77 C           4.5425    0.5589    4.2059 C.ar    1  LIG1        0.0000
     78 H           4.1984   -0.3147    4.3562 H       1  LIG1        0.0000
     79 C           3.9323    1.3904    3.2789 C.ar    1  LIG1        0.0000
     80 H           3.1665    1.0743    2.8145 H       1  LIG1        0.0000
     81 C           1.7203    4.7627   -0.5394 C.3     1  LIG1        0.0000
     82 H           1.7048    5.4764    0.1482 H       1  LIG1        0.0000
     83 H           2.6190    4.7674   -0.9544 H       1  LIG1        0.0000
@<TRIPOS>BOND
     1    52    51    1
     2    50    49    1
     3    28    27    1
     4     5     3    1
     5    51    49   ar
     6    51    53   ar
     7    29    27    1
     8    49    47   ar
     9     4     3    1
    10    14    13    1
    11    27    30    1
    12    27    24    1
    13    26    24    1
    14     3     6    1
    15     3    81    1
    16    54    53    1
    17    53    44   ar
    18    13    11   ar
    19    13    15   ar
    20    12    11    1
    21    24    25    1
    22    24     1    1
    23    83    81    1
    24    47    48    1
    25    47    45   ar
    26    16    15    1
    27    11    10   ar
    28    81    82    1
    29    81     1    1
    30    15    55   ar
    31    44    45   ar
    32    44     8    1
    33    45    46    1
    34     1    21    1
    35     1     2    1
    36    23    21    1
    37    10     9    1
    38    10    57   ar
    39    55    56    1
    40    55    57   ar
    41     8     9    2
    42     8     7    1
    43     9    32    1
    44    21    22    1
    45    21    17    1
    46     2     7    1
    47    57    58    1
    48    19    17    1
    49    35    34    1
    50     7    31    1
    51     7    70    1
    52    17    18    1
    53    17    20    1
    54    32    31    1
    55    32    33    1
    56    34    33   ar
    57    34    36   ar
    58    31    59    1
    59    37    36    1
    60    80    79    1
    61    33    42   ar
    62    70    79   ar
    63    70    71   ar
    64    36    38   ar
    65    69    68    1
    66    79    77   ar
    67    59    68   ar
    68    59    60   ar
    69    68    66   ar
    70    72    71    1
    71    71    73   ar
    72    61    60    1
    73    60    62   ar
    74    77    78    1
    75    77    75   ar
    76    66    67    1
    77    66    64   ar
    78    42    43    1
    79    42    40   ar
    80    38    39    1
    81    38    40   ar
    82    73    75   ar
    83    73    74    1
    84    75    76    1
    85    62    64   ar
    86    62    63    1
    87    64    65    1
    88    40    41    1
