@<TRIPOS>MOLECULE
7121599.cif
 106 114 0 0 0
SMALL
GASTEIGER

@<TRIPOS>ATOM
      1 O           4.7781    6.4358    7.1856 O.2     1  LIG1       -0.2500
      2 O           3.8102    3.8738    8.5826 O.2     1  LIG1       -0.2938
      3 O           4.0002    5.9398    5.1631 O.3     1  LIG1       -0.4634
      4 O           2.1634    2.7533    5.7705 O.3     1  LIG1       -0.3617
      5 C          -0.1000   11.0442    5.1353 C.3     1  LIG1        0.0727
      6 H           0.3850   11.9076    5.1551 H       1  LIG1        0.0610
      7 H          -0.6282   10.9740    5.9700 H       1  LIG1        0.0610
      8 C          -0.5972   11.4251    2.7016 C.ar    1  LIG1       -0.0564
      9 H           0.3061   11.6929    2.5830 H       1  LIG1        0.0621
     10 C          -1.4592   11.4225    1.6254 C.ar    1  LIG1       -0.0614
     11 H          -1.1441   11.6808    0.7666 H       1  LIG1        0.0618
     12 C          -2.7711   11.0471    1.7879 C.ar    1  LIG1       -0.0617
     13 H          -3.3598   11.0488    1.0422 H       1  LIG1        0.0618
     14 C          -3.2324   10.6705    3.0146 C.ar    1  LIG1       -0.0614
     15 H          -4.1393   10.4095    3.1256 H       1  LIG1        0.0618
     16 C          -2.3664   10.6700    4.1052 C.ar    1  LIG1       -0.0564
     17 H          -2.6887   10.4119    4.9607 H       1  LIG1        0.0621
     18 C          -1.0432   11.0396    3.9558 C.ar    1  LIG1       -0.0219
     19 O           0.8504    9.9762    5.0952 O.3     1  LIG1       -0.3752
     20 C           0.3112    8.7336    5.5285 C.3     1  LIG1        0.0481
     21 H          -0.4675    8.4892    4.9684 H       1  LIG1        0.0560
     22 H           0.0090    8.8053    6.4686 H       1  LIG1        0.0560
     23 C           1.3842    7.6823    5.4099 C.3     1  LIG1       -0.0287
     24 H           2.0867    7.8499    6.0875 H       1  LIG1        0.0288
     25 H           1.8024    7.7366    4.5148 H       1  LIG1        0.0288
     26 C           0.7986    6.2870    5.6158 C.3     1  LIG1       -0.0384
     27 H           0.1651    6.1058    4.8772 H       1  LIG1        0.0274
     28 H           0.2770    6.2915    6.4576 H       1  LIG1        0.0274
     29 C           1.8087    5.1213    5.6812 C.3     1  LIG1        0.0539
     30 C           1.1238    3.7472    5.5870 C.3     1  LIG1        0.0832
     31 C           0.4252    3.4049    4.2798 C.3     1  LIG1       -0.0228
     32 H           1.0710    3.0734    3.6066 H       1  LIG1        0.0293
     33 H          -0.0478    4.1928    3.9119 H       1  LIG1        0.0293
     34 C          -0.5663    2.3048    4.6828 C.3     1  LIG1       -0.0501
     35 H          -1.2916    2.2146    4.0151 H       1  LIG1        0.0266
     36 H          -0.1104    1.4330    4.7861 H       1  LIG1        0.0266
     37 C          -1.1039    2.8066    6.0150 C.3     1  LIG1       -0.0474
     38 H          -1.4615    2.0554    6.5531 H       1  LIG1        0.0269
     39 H          -1.8262    3.4690    5.8733 H       1  LIG1        0.0269
     40 C           0.0969    3.4562    6.7216 C.3     1  LIG1       -0.0084
     41 H          -0.1763    4.3037    7.1780 H       1  LIG1        0.0330
     42 C           0.8753    2.5473    7.6832 C.3     1  LIG1       -0.0141
     43 H           0.7931    2.8659    8.6178 H       1  LIG1        0.0298
     44 H           0.5521    1.6139    7.6305 H       1  LIG1        0.0298
     45 C           2.3079    2.6580    7.1932 C.3     1  LIG1        0.1184
     46 H           2.8273    1.8382    7.4394 H       1  LIG1        0.0676
     47 C           3.0173    3.8975    7.6714 C.2     1  LIG1        0.1762
     48 C           2.6754    5.2207    6.9634 C.3     1  LIG1        0.1283
     49 H           2.2007    5.8115    7.6162 H       1  LIG1        0.0500
     50 C           3.9262    5.9261    6.5172 C.2     1  LIG1        0.3183
     51 C           2.8760    5.2301    4.5841 C.3     1  LIG1        0.1019
     52 H           3.1542    4.3278    4.2842 H       1  LIG1        0.0704
     53 H           2.5195    5.7270    3.8054 H       1  LIG1        0.0704
     54 O           3.2082    7.7223   -2.2385 O.2     2  LIG2       -0.2500
     55 O           2.6879    4.9724   -1.0650 O.2     2  LIG2       -0.2938
     56 O           2.4245    8.8586   -0.4950 O.3     2  LIG2       -0.4634
     57 O           0.9658    6.1774    1.6784 O.3     2  LIG2       -0.3617
     58 C          -2.4058   11.9428   -3.6285 C.3     2  LIG2        0.0727
     59 H          -2.9876   11.3142   -4.1249 H       2  LIG2        0.0610
     60 H          -2.1390   12.6651   -4.2501 H       2  LIG2        0.0610
     61 C          -2.5754   13.4289   -1.6144 C.ar    2  LIG2       -0.0564
     62 H          -1.6634   13.6590   -1.7440 H       2  LIG2        0.0621
     63 C          -3.2786   13.9818   -0.5601 C.ar    2  LIG2       -0.0614
     64 H          -2.8451   14.5878    0.0297 H       2  LIG2        0.0618
     65 C          -4.6050   13.6617   -0.3602 C.ar    2  LIG2       -0.0617
     66 H          -5.0886   14.0474    0.3602 H       2  LIG2        0.0618
     67 C          -5.2171   12.7826   -1.2091 C.ar    2  LIG2       -0.0614
     68 H          -6.1296   12.5541   -1.0774 H       2  LIG2        0.0618
     69 C          -4.5131   12.2239   -2.2602 C.ar    2  LIG2       -0.0564
     70 H          -4.9491   11.6109   -2.8389 H       2  LIG2        0.0621
     71 C          -3.1889   12.5416   -2.4809 C.ar    2  LIG2       -0.0219
     72 O          -1.2357   11.2490   -3.1891 O.3     2  LIG2       -0.3752
     73 C          -1.5885   10.0696   -2.4809 C.3     2  LIG2        0.0481
     74 H          -2.0269    9.4301   -3.0970 H       2  LIG2        0.0560
     75 H          -2.2297   10.2937   -1.7616 H       2  LIG2        0.0560
     76 C          -0.3607    9.4344   -1.8846 C.3     2  LIG2       -0.0287
     77 H           0.1998   10.1297   -1.4562 H       2  LIG2        0.0288
     78 H           0.1735    9.0055   -2.5995 H       2  LIG2        0.0288
     79 C          -0.7700    8.3896   -0.8485 C.3     2  LIG2       -0.0384
     80 H          -1.2912    7.6859   -1.3102 H       2  LIG2        0.0274
     81 H          -1.3737    8.8246   -0.1955 H       2  LIG2        0.0274
     82 C           0.3626    7.7112   -0.0730 C.3     2  LIG2        0.0539
     83 C          -0.1798    6.8351    1.0714 C.3     2  LIG2        0.0832
     84 C          -0.9533    7.6106    2.1470 C.3     2  LIG2       -0.0228
     85 H          -0.5746    7.4398    3.0454 H       2  LIG2        0.0293
     86 H          -0.9277    8.5833    1.9669 H       2  LIG2        0.0293
     87 C          -2.3825    7.0775    2.0504 C.3     2  LIG2       -0.0501
     88 H          -2.8619    7.1793    2.9103 H       2  LIG2        0.0266
     89 H          -2.8900    7.5412    1.3387 H       2  LIG2        0.0266
     90 C          -2.1731    5.6180    1.7099 C.3     2  LIG2       -0.0474
     91 H          -3.0066    5.2108    1.3629 H       2  LIG2        0.0269
     92 H          -1.8694    5.1071    2.5018 H       2  LIG2        0.0269
     93 C          -1.0847    5.6537    0.6260 C.3     2  LIG2       -0.0084
     94 H          -1.4877    5.8380   -0.2702 H       2  LIG2        0.0330
     95 C          -0.1438    4.4506    0.5535 C.3     2  LIG2       -0.0141
     96 H          -0.1752    4.0263   -0.3405 H       2  LIG2        0.0298
     97 H          -0.3720    3.7754    1.2410 H       2  LIG2        0.0298
     98 C           1.2278    5.0709    0.8225 C.3     2  LIG2        0.1184
     99 H           1.8358    4.4123    1.2663 H       2  LIG2        0.0676
    100 C           1.8322    5.5777   -0.4740 C.2     2  LIG2        0.1762
    101 C           1.2655    6.8917   -1.0206 C.3     2  LIG2        0.1283
    102 H           0.7534    6.6944   -1.8560 H       2  LIG2        0.0500
    103 C           2.4007    7.8285   -1.3622 C.2     2  LIG2        0.3183
    104 C           1.3600    8.7425    0.4846 C.3     2  LIG2        0.1019
    105 H           0.9152    9.6182    0.6172 H       2  LIG2        0.0704
    106 H           1.7229    8.4386    1.3541 H       2  LIG2        0.0704
@<TRIPOS>BOND
     1    60    58    1
     2    59    58    1
     3    58    72    1
     4    58    71    1
     5    72    73    1
     6    74    73    1
     7    70    69    1
     8    78    76    1
     9    71    69   ar
    10    71    61   ar
    11    73    76    1
    12    73    75    1
    13    69    67   ar
    14    54   103    2
    15    76    77    1
    16    76    79    1
    17   102   101    1
    18    62    61    1
    19    61    63   ar
    20   103   101    1
    21   103    56    1
    22    80    79    1
    23    67    68    1
    24    67    65   ar
    25    55   100    2
    26   101   100    1
    27   101    82    1
    28    79    81    1
    29    79    82    1
    30    63    65   ar
    31    63    64    1
    32    56   104    1
    33   100    98    1
    34    65    66    1
    35    96    95    1
    36    94    93    1
    37    82   104    1
    38    82    83    1
    39   104   105    1
    40   104   106    1
    41    95    93    1
    42    95    98    1
    43    95    97    1
    44    93    83    1
    45    93    90    1
    46    11    10    1
    47    98    99    1
    48    98    57    1
    49    13    12    1
    50    83    57    1
    51    83    84    1
    52    89    87    1
    53    91    90    1
    54    10    12   ar
    55    10     8   ar
    56    90    87    1
    57    90    92    1
    58    12    14   ar
    59    86    84    1
    60    87    84    1
    61    87    88    1
    62    84    85    1
    63     9     8    1
    64     8    18   ar
    65    14    15    1
    66    14    16   ar
    67    32    31    1
    68    53    51    1
    69    33    31    1
    70    18    16   ar
    71    18     5    1
    72    35    34    1
    73    16    17    1
    74    31    34    1
    75    31    30    1
    76    52    51    1
    77    25    23    1
    78    51     3    1
    79    51    29    1
    80    34    36    1
    81    34    37    1
    82    27    26    1
    83    21    20    1
    84    19     5    1
    85    19    20    1
    86     5     6    1
    87     5     7    1
    88     3    50    1
    89    23    20    1
    90    23    26    1
    91    23    24    1
    92    20    22    1
    93    30    29    1
    94    30     4    1
    95    30    40    1
    96    26    29    1
    97    26    28    1
    98    29    48    1
    99     4    45    1
   100    39    37    1
   101    37    38    1
   102    37    40    1
   103    50    48    1
   104    50     1    2
   105    40    41    1
   106    40    42    1
   107    48    49    1
   108    48    47    1
   109    45    46    1
   110    45    47    1
   111    45    42    1
   112    44    42    1
   113    47     2    2
   114    42    43    1
