@<TRIPOS>MOLECULE
C H2 Cl2, C23 H21 N O4
 108 112 0 0 0
SMALL
GASTEIGER

@<TRIPOS>ATOM
      1 CL          4.6927   14.5906    9.1504 Cl      1  LIG1       -0.1083
      2 CL          8.5923    9.1470    1.0915 Cl      2  LIG2       -0.1083
      3 CL          3.6550   14.1840    6.4581 Cl      1  LIG1       -0.1083
      4 CL          9.8188    8.3764    3.5937 Cl      2  LIG2       -0.1083
      5 O           8.6405    0.5498    4.8236 O.3     1  LIG1       -0.4523
      6 O           4.7472    6.1940    5.4416 O.3     2  LIG2       -0.4523
      7 O           6.8363    0.5750    6.1169 O.2     1  LIG1       -0.2484
      8 O           6.5877    6.1943    4.2035 O.2     2  LIG2       -0.2484
      9 O           6.2378    1.0750    3.3828 O.2     1  LIG1       -0.2702
     10 O           7.1014    6.7240    6.9724 O.2     2  LIG2       -0.2702
     11 N           6.6516    3.1226    4.2250 N.am    1  LIG1       -0.2953
     12 H           6.4779    3.9623    4.1646 H       1  LIG1        0.1501
     13 N           6.7569    8.7532    6.0699 N.am    2  LIG2       -0.2953
     14 H           6.9414    9.5918    6.1200 H       2  LIG2        0.1501
     15 O           8.7791    4.7457    1.5277 O.2     1  LIG1       -0.2927
     16 O           4.6069   10.3965    8.7058 O.2     2  LIG2       -0.2927
     17 C           5.9556    2.2667    3.4391 C.2     1  LIG1        0.2449
     18 C           4.2778    8.4872    5.6002 C.3     2  LIG2        0.0413
     19 H           3.7116    8.6049    4.8092 H       2  LIG2        0.0373
     20 C           4.8399    2.8271    2.6185 C.ar    1  LIG1        0.0367
     21 C           7.6019    1.1658    5.4068 C.2     1  LIG1        0.3324
     22 C           7.4172    7.9084    6.8834 C.2     2  LIG2        0.2449
     23 C           8.5583    8.4564    7.6958 C.ar    2  LIG2        0.0367
     24 C           9.0077    7.6558    8.7436 C.ar    2  LIG2       -0.0496
     25 H           8.5849    6.8459    8.9206 H       2  LIG2        0.0625
     26 C           5.8099    6.7969    4.8860 C.2     2  LIG2        0.3324
     27 C           7.6835    2.6951    5.1715 C.3     1  LIG1        0.1430
     28 C           8.4920    3.3220    7.5587 C.ar    1  LIG1       -0.0448
     29 C           9.1268    2.8489    4.6384 C.3     1  LIG1        0.0413
     30 H           9.7159    2.9594    5.4130 H       1  LIG1        0.0373
     31 C           4.0306    9.9397    2.5295 C.ar    2  LIG2       -0.0585
     32 H           4.0504   10.6819    3.0912 H       2  LIG2        0.0620
     33 C           4.9333    7.8276    1.8510 C.ar    2  LIG2       -0.0585
     34 H           5.5632    7.1505    1.9442 H       2  LIG2        0.0620
     35 C           4.9727    8.9388    2.6942 C.ar    2  LIG2       -0.0448
     36 C           8.5277    2.2261    8.4121 C.ar    1  LIG1       -0.0585
     37 H           7.8904    1.5550    8.3261 H       1  LIG1        0.0620
     38 C           9.4335    1.4828    4.0183 C.3     1  LIG1        0.1350
     39 C           4.1864    4.0146    2.8896 C.ar    1  LIG1       -0.0496
     40 H           4.4483    4.5341    3.6151 H       1  LIG1        0.0625
     41 C           9.4526    4.3260    7.7009 C.ar    1  LIG1       -0.0585
     42 H           9.4371    5.0659    7.1381 H       1  LIG1        0.0620
     43 C           4.3926    9.4575    7.9588 C.2     2  LIG2        0.1564
     44 C          10.0833    8.0572    9.5243 C.ar    2  LIG2       -0.0610
     45 H          10.3825    7.5178   10.2202 H       2  LIG2        0.0618
     46 C           9.5117    2.1234    9.3975 C.ar    1  LIG1       -0.0615
     47 H           9.5295    1.3876    9.9664 H       1  LIG1        0.0618
     48 C          10.2665   10.0590    8.2269 C.ar    2  LIG2       -0.0610
     49 H          10.6859   10.8723    8.0580 H       2  LIG2        0.0618
     50 C           3.9322    7.1361    6.2039 C.3     2  LIG2        0.1350
     51 C           8.8259    2.4296    1.7989 C.2     1  LIG1       -0.0194
     52 H           8.6050    2.2845    0.9066 H       1  LIG1        0.0650
     53 C           9.1952    9.6576    7.4298 C.ar    2  LIG2       -0.0496
     54 H           8.9096   10.1922    6.7248 H       2  LIG2        0.0625
     55 C           8.9516    3.8198    2.2726 C.2     1  LIG1        0.1564
     56 C           7.4228    3.4640    6.4863 C.3     1  LIG1        0.0046
     57 H           7.3248    4.4055    6.2745 H       1  LIG1        0.0339
     58 H           6.5784    3.1598    6.8547 H       1  LIG1        0.0339
     59 C          10.7090    9.2649    9.2614 C.ar    2  LIG2       -0.0617
     60 H          11.4275    9.5397    9.7832 H       2  LIG2        0.0618
     61 C           4.4302    2.0499    1.5236 C.ar    1  LIG1       -0.0496
     62 H           4.8611    1.2470    1.3364 H       1  LIG1        0.0625
     63 C           4.4121    8.0808    8.4489 C.2     2  LIG2       -0.0194
     64 H           4.5304    7.9387    9.3606 H       2  LIG2        0.0650
     65 C           4.0246    9.6763    6.5170 C.3     2  LIG2        0.0191
     66 H           4.5280   10.4360    6.1824 H       2  LIG2        0.0350
     67 H           3.0838    9.9065    6.4710 H       2  LIG2        0.0350
     68 C           3.1387    4.4320    2.0792 C.ar    1  LIG1       -0.0610
     69 H           2.6998    5.2301    2.2655 H       1  LIG1        0.0618
     70 C          10.4339    4.2217    8.6843 C.ar    1  LIG1       -0.0615
     71 H          11.0703    4.8942    8.7753 H       1  LIG1        0.0618
     72 C           5.7370    8.3214    5.1009 C.3     2  LIG2        0.1430
     73 C           6.0279    9.0770    3.7829 C.3     2  LIG2        0.0046
     74 H           6.1328   10.0192    3.9876 H       2  LIG2        0.0339
     75 H           6.8738    8.7595    3.4299 H       2  LIG2        0.0339
     76 C           3.0527    9.8590    1.5390 C.ar    2  LIG2       -0.0615
     77 H           2.4348   10.5460    1.4325 H       2  LIG2        0.0618
     78 C           9.3659    4.0321    3.7082 C.3     1  LIG1        0.0191
     79 H           8.8839    4.7979    4.0561 H       1  LIG1        0.0350
     80 H          10.3113    4.2493    3.7256 H       1  LIG1        0.0350
     81 C           9.0098    1.3792    2.5796 C.2     1  LIG1       -0.0375
     82 H           8.8701    0.5324    2.2204 H       1  LIG1        0.0612
     83 C           3.0109    8.7385    0.7071 C.ar    2  LIG2       -0.0617
     84 H           2.3574    8.6671    0.0501 H       2  LIG2        0.0618
     85 C           3.3868    2.4750    0.7245 C.ar    1  LIG1       -0.0610
     86 H           3.1167    1.9580    0.0000 H       1  LIG1        0.0618
     87 C           3.9494    7.7370    0.8698 C.ar    2  LIG2       -0.0615
     88 H           3.9228    6.9900    0.3152 H       2  LIG2        0.0618
     89 C           4.2700    7.0266    7.6651 C.2     2  LIG2       -0.0375
     90 H           4.3831    6.1802    8.0335 H       2  LIG2        0.0612
     91 C          10.4661    3.1298    9.5233 C.ar    1  LIG1       -0.0617
     92 H          11.1268    3.0641   10.1751 H       1  LIG1        0.0618
     93 C          10.8886    1.0460    4.1595 C.3     1  LIG1       -0.0207
     94 H          11.1475    1.0900    5.0824 H       1  LIG1        0.0271
     95 H          11.4491    1.6288    3.6417 H       1  LIG1        0.0271
     96 H          10.9841    0.1452    3.8423 H       1  LIG1        0.0271
     97 C           2.7436    3.6665    0.9977 C.ar    1  LIG1       -0.0617
     98 H           2.0450    3.9541    0.4543 H       1  LIG1        0.0618
     99 C           2.4848    6.7137    5.9911 C.3     2  LIG2       -0.0207
    100 H           2.2853    6.7160    5.0518 H       2  LIG2        0.0271
    101 H           1.9025    7.3286    6.4434 H       2  LIG2        0.0271
    102 H           2.3537    5.8313    6.3441 H       2  LIG2        0.0271
    103 C           9.3011    7.8281    1.9882 C.3     2  LIG2        0.0970
    104 H          10.0650    7.4784    1.5021 H       2  LIG2        0.0597
    105 H           8.6513    7.1128    2.0823 H       2  LIG2        0.0597
    106 C           4.0866   13.4091    7.9936 C.3     1  LIG1        0.0970
    107 H           3.3058   12.9674    8.3630 H       1  LIG1        0.0597
    108 H           4.7652   12.7350    7.8350 H       1  LIG1        0.0597
@<TRIPOS>BOND
     1    86    85    1
     2    84    83    1
     3    88    87    1
     4    98    97    1
     5    83    87   ar
     6    83    76   ar
     7    85    97   ar
     8    85    61   ar
     9    87    33   ar
    10    52    51    1
    11    97    68   ar
    12     2   103    1
    13    62    61    1
    14    77    76    1
    15   104   103    1
    16    61    20   ar
    17    15    55    2
    18    76    31   ar
    19    51    55    1
    20    51    81    2
    21    33    34    1
    22    33    35   ar
    23   103   105    1
    24   103     4    1
    25    68    69    1
    26    68    39   ar
    27    82    81    1
    28    55    78    1
    29    31    35   ar
    30    31    32    1
    31    81    38    1
    32    20    39   ar
    33    20    17    1
    34    35    73    1
    35    39    40    1
    36     9    17    2
    37    75    73    1
    38    17    11   am
    39    95    93    1
    40    78    80    1
    41    78    79    1
    42    78    29    1
    43    73    74    1
    44    73    72    1
    45    96    93    1
    46    38    93    1
    47    38    29    1
    48    38     5    1
    49    93    94    1
    50    12    11    1
    51     8    26    2
    52    11    27    1
    53    29    27    1
    54    29    30    1
    55    19    18    1
    56     5    21    1
    57    26    72    1
    58    26     6    1
    59   100    99    1
    60    72    18    1
    61    72    13    1
    62    27    21    1
    63    27    56    1
    64    21     7    2
    65     6    50    1
    66    18    50    1
    67    18    65    1
    68    99    50    1
    69    99   102    1
    70    99   101    1
    71    13    14    1
    72    13    22   am
    73    66    65    1
    74    50    89    1
    75    57    56    1
    76     3   106    1
    77    67    65    1
    78    56    58    1
    79    56    28    1
    80    65    43    1
    81    54    53    1
    82    22    10    2
    83    22    23    1
    84    42    41    1
    85    53    23   ar
    86    53    48   ar
    87    28    41   ar
    88    28    36   ar
    89    89    90    1
    90    89    63    2
    91    23    24   ar
    92    41    70   ar
    93   108   106    1
    94    43    63    1
    95    43    16    2
    96   106   107    1
    97   106     1    1
    98    49    48    1
    99    48    59   ar
   100    37    36    1
   101    36    46   ar
   102    63    64    1
   103    70    71    1
   104    70    91   ar
   105    24    25    1
   106    24    44   ar
   107    59    44   ar
   108    59    60    1
   109    46    91   ar
   110    46    47    1
   111    91    92    1
   112    44    45    1
