@<TRIPOS>MOLECULE
C12 H10 I O, Br
 25 24 0 0 0
SMALL
GASTEIGER

@<TRIPOS>ATOM
      1 I           2.3165    3.0188    8.2390 I       1  LIG1       -0.0438
      2 C           0.2420    2.9593    7.9662 C.ar    1  LIG1        0.0136
      3 C          -0.5018    1.8695    8.4260 C.ar    1  LIG1       -0.0452
      4 H          -0.0803    1.1444    8.8762 H       1  LIG1        0.0629
      5 C          -1.8820    1.8655    8.2095 C.ar    1  LIG1       -0.0192
      6 H          -2.4116    1.1357    8.5026 H       1  LIG1        0.0654
      7 C          -2.4587    2.9297    7.5638 C.ar    1  LIG1        0.1169
      8 O          -3.8282    2.9338    7.3952 O.3     1  LIG1       -0.5068
      9 H          -4.1515    2.2289    7.7152 H       1  LIG1        0.2921
     10 C          -1.7415    4.0108    7.1174 C.ar    1  LIG1       -0.0192
     11 H          -2.1807    4.7371    6.6921 H       1  LIG1        0.0654
     12 C          -0.3585    4.0294    7.2956 C.ar    1  LIG1       -0.0452
     13 H           0.1638    4.7563    6.9718 H       1  LIG1        0.0629
     14 C           2.6613    1.5763    6.6998 C.ar    2  LIG2       -0.0179
     15 C           3.6332    0.6038    6.8856 C.ar    2  LIG2       -0.0540
     16 H           4.1712    0.5992    7.6692 H       2  LIG2        0.0624
     17 C           3.8010   -0.3367    5.9162 C.ar    2  LIG2       -0.0612
     18 H           4.4586   -1.0137    6.0350 H       2  LIG2        0.0618
     19 C           3.0276   -0.3367    4.7590 C.ar    2  LIG2       -0.0617
     20 H           3.1422   -1.0114    4.0980 H       2  LIG2        0.0618
     21 C           2.0863    0.6677    4.5962 C.ar    2  LIG2       -0.0612
     22 H           1.5704    0.6979    3.7992 H       2  LIG2        0.0618
     23 C           1.8836    1.6205    5.5541 C.ar    2  LIG2       -0.0540
     24 H           1.2253    2.2951    5.4391 H       2  LIG2        0.0624
     25 BR         -5.3465    0.4337    8.7055 Br      3  LIG3        0.0000
@<TRIPOS>BOND
     1    22    21    1
     2    20    19    1
     3    21    19   ar
     4    21    23   ar
     5    19    17   ar
     6    24    23    1
     7    23    14   ar
     8    17    18    1
     9    17    15   ar
    10    11    10    1
    11    14    15   ar
    12    15    16    1
    13    13    12    1
    14    10    12   ar
    15    10     7   ar
    16    12     2   ar
    17     8     7    1
    18     8     9    1
    19     7     5   ar
    20     2     1    1
    21     2     3   ar
    22     5     3   ar
    23     5     6    1
    24     3     4    1
