@<TRIPOS>MOLECULE
C70 H63 O4 P, 2(H2 O)
 144 151 0 0 0
SMALL
GASTEIGER

@<TRIPOS>ATOM
      1 P           6.1458   22.3872    9.9774 P.3     1  LIG1        0.5884
      2 O           4.9670   22.0004   10.9515 O.3     1  LIG1       -0.3945
      3 O           5.7218   23.8833    9.7368 O.3     1  LIG1       -0.3945
      4 O           7.4406   22.4533   10.8237 O.3     1  LIG1       -0.2831
      5 H           7.9798   21.8673   10.5568 H       1  LIG1        0.2242
      6 O           6.2246   21.5412    8.7821 O.2     1  LIG1       -0.2046
      7 C           4.2801   20.7717   10.9335 C.ar    1  LIG1        0.1412
      8 C           4.6248   19.8260   11.8960 C.ar    1  LIG1        0.0071
      9 C           3.8432   18.6768   11.9711 C.ar    1  LIG1       -0.0507
     10 H           4.0643   18.0085   12.6091 H       1  LIG1        0.0625
     11 C           2.7421   18.4793   11.1342 C.ar    1  LIG1       -0.0440
     12 C           2.4708   19.4377   10.1639 C.ar    1  LIG1       -0.0507
     13 H           1.7465   19.2952    9.5660 H       1  LIG1        0.0625
     14 C           3.2321   20.6048   10.0411 C.ar    1  LIG1        0.0071
     15 C           5.7811   20.1381   12.8426 C.3     1  LIG1        0.0377
     16 H           6.5116   20.5207   12.2770 H       1  LIG1        0.0447
     17 C           1.9102   17.2125   11.2605 C.3     1  LIG1       -0.0215
     18 H           1.9953   16.8895   12.2030 H       1  LIG1        0.0343
     19 C           2.8951   21.6592    8.9995 C.3     1  LIG1        0.0377
     20 H           3.7436   22.1561    8.8178 H       1  LIG1        0.0447
     21 C           5.3984   21.2272   13.8435 C.ar    1  LIG1       -0.0355
     22 C           4.0945   21.3982   14.2938 C.ar    1  LIG1       -0.0577
     23 H           3.4040   20.8379   13.9591 H       1  LIG1        0.0621
     24 C           3.7909   22.3813   15.2297 C.ar    1  LIG1       -0.0615
     25 H           2.8970   22.4836   15.5348 H       1  LIG1        0.0618
     26 C           4.7809   23.2086   15.7169 C.ar    1  LIG1       -0.0617
     27 H           4.5725   23.8782   16.3577 H       1  LIG1        0.0618
     28 C           6.0800   23.0563   15.2657 C.ar    1  LIG1       -0.0615
     29 H           6.7656   23.6252   15.5952 H       1  LIG1        0.0618
     30 C           6.3836   22.0777   14.3362 C.ar    1  LIG1       -0.0577
     31 H           7.2780   21.9848   14.0296 H       1  LIG1        0.0621
     32 C           6.3695   18.9143   13.5304 C.ar    1  LIG1       -0.0355
     33 C           5.7861   18.3583   14.6637 C.ar    1  LIG1       -0.0577
     34 H           5.0017   18.7521   15.0273 H       1  LIG1        0.0621
     35 C           6.3313   17.2409   15.2692 C.ar    1  LIG1       -0.0615
     36 H           5.9170   16.8700   16.0395 H       1  LIG1        0.0618
     37 C           7.4772   16.6611   14.7573 C.ar    1  LIG1       -0.0617
     38 H           7.8451   15.8865   15.1658 H       1  LIG1        0.0618
     39 C           8.0847   17.2181   13.6443 C.ar    1  LIG1       -0.0615
     40 H           8.8784   16.8314   13.2938 H       1  LIG1        0.0618
     41 C           7.5374   18.3382   13.0418 C.ar    1  LIG1       -0.0577
     42 H           7.9654   18.7183   12.2837 H       1  LIG1        0.0621
     43 C           2.4791   16.1272   10.3492 C.3     1  LIG1       -0.0586
     44 H           2.4186   16.4192    9.4158 H       1  LIG1        0.0235
     45 H           1.9662   15.3002   10.4666 H       1  LIG1        0.0235
     46 H           3.4175   15.9649   10.5807 H       1  LIG1        0.0235
     47 C           0.4264   17.4261   10.9809 C.3     1  LIG1       -0.0586
     48 H           0.0844   18.1398   11.5588 H       1  LIG1        0.0235
     49 H          -0.0627   16.5964   11.1620 H       1  LIG1        0.0235
     50 H           0.3041   17.6791   10.0420 H       1  LIG1        0.0235
     51 C           2.4863   21.0092    7.6779 C.ar    1  LIG1       -0.0355
     52 C           3.4493   20.2961    6.9685 C.ar    1  LIG1       -0.0577
     53 H           4.3234   20.2050    7.3294 H       1  LIG1        0.0621
     54 C           3.1548   19.7189    5.7503 C.ar    1  LIG1       -0.0615
     55 H           3.8218   19.2297    5.2832 H       1  LIG1        0.0618
     56 C           1.8960   19.8514    5.2116 C.ar    1  LIG1       -0.0617
     57 H           1.6990   19.4742    4.3624 H       1  LIG1        0.0618
     58 C           0.9220   20.5339    5.9081 C.ar    1  LIG1       -0.0615
     59 H           0.0474   20.6115    5.5448 H       1  LIG1        0.0618
     60 C           1.2141   21.1115    7.1455 C.ar    1  LIG1       -0.0577
     61 H           0.5369   21.5761    7.6230 H       1  LIG1        0.0621
     62 C           1.8945   22.6904    9.5011 C.ar    1  LIG1       -0.0355
     63 C           1.7810   23.8934    8.8301 C.ar    1  LIG1       -0.0577
     64 H           2.3781   24.0890    8.1173 H       1  LIG1        0.0621
     65 C           0.8114   24.8185    9.1796 C.ar    1  LIG1       -0.0615
     66 H           0.7334   25.6272    8.6871 H       1  LIG1        0.0618
     67 C          -0.0354   24.5785   10.2293 C.ar    1  LIG1       -0.0617
     68 H          -0.7049   25.2102   10.4641 H       1  LIG1        0.0618
     69 C           0.0984   23.4192   10.9302 C.ar    1  LIG1       -0.0615
     70 H          -0.4737   23.2485   11.6690 H       1  LIG1        0.0618
     71 C           1.0654   22.4802   10.5771 C.ar    1  LIG1       -0.0577
     72 H           1.1527   21.6833   11.0872 H       1  LIG1        0.0621
     73 C           6.5963   24.9824    9.5853 C.ar    1  LIG1        0.1412
     74 C           7.0932   25.2625    8.3180 C.ar    1  LIG1        0.0071
     75 C           7.8791   26.4008    8.1830 C.ar    1  LIG1       -0.0507
     76 H           8.2435   26.6102    7.3309 H       1  LIG1        0.0625
     77 C           8.1486   27.2431    9.2564 C.ar    1  LIG1       -0.0440
     78 C           7.6158   26.9190   10.5033 C.ar    1  LIG1       -0.0507
     79 H           7.7937   27.4886   11.2424 H       1  LIG1        0.0625
     80 C           6.8297   25.7840   10.6984 C.ar    1  LIG1        0.0071
     81 C           6.7350   24.3724    7.1324 C.3     1  LIG1        0.0377
     82 H           6.6985   23.4375    7.4854 H       1  LIG1        0.0447
     83 C           8.9980   28.4886    9.0437 C.3     1  LIG1       -0.0215
     84 H           9.3662   28.4444    8.1150 H       1  LIG1        0.0343
     85 C           6.1929   25.4312   12.0421 C.3     1  LIG1        0.0377
     86 H           6.1474   24.4326   12.0730 H       1  LIG1        0.0447
     87 C           5.3445   24.6796    6.5973 C.ar    1  LIG1       -0.0355
     88 C           4.5978   23.6425    6.0473 C.ar    1  LIG1       -0.0577
     89 H           4.9427   22.7575    6.0678 H       1  LIG1        0.0621
     90 C           3.3618   23.8773    5.4707 C.ar    1  LIG1       -0.0615
     91 H           2.8715   23.1597    5.0868 H       1  LIG1        0.0618
     92 C           2.8415   25.1605    5.4547 C.ar    1  LIG1       -0.0617
     93 H           1.9967   25.3303    5.0546 H       1  LIG1        0.0618
     94 C           3.5611   26.1902    6.0251 C.ar    1  LIG1       -0.0615
     95 H           3.2003   27.0689    6.0312 H       1  LIG1        0.0618
     96 C           4.8042   25.9554    6.5892 C.ar    1  LIG1       -0.0577
     97 H           5.2905   26.6755    6.9736 H       1  LIG1        0.0621
     98 C           7.8097   24.3787    6.0527 C.ar    1  LIG1       -0.0355
     99 C           7.5974   24.8753    4.7790 C.ar    1  LIG1       -0.0577
    100 H           6.7550   25.2551    4.5586 H       1  LIG1        0.0621
    101 C           8.6008   24.8260    3.8167 C.ar    1  LIG1       -0.0615
    102 H           8.4377   25.1709    2.9467 H       1  LIG1        0.0618
    103 C           9.8231   24.2831    4.1159 C.ar    1  LIG1       -0.0617
    104 H          10.5058   24.2454    3.4563 H       1  LIG1        0.0618
    105 C          10.0529   23.7899    5.3888 C.ar    1  LIG1       -0.0615
    106 H          10.8995   23.4192    5.6084 H       1  LIG1        0.0618
    107 C           9.0511   23.8359    6.3407 C.ar    1  LIG1       -0.0577
    108 H           9.2175   23.4888    7.2093 H       1  LIG1        0.0621
    109 C           8.1565   29.7480    9.1382 C.3     1  LIG1       -0.0586
    110 H           7.4087   29.6892    8.5075 H       1  LIG1        0.0235
    111 H           8.7087   30.5272    8.9185 H       1  LIG1        0.0235
    112 H           7.8086   29.8406   10.0497 H       1  LIG1        0.0235
    113 C          10.1787   28.5521    9.9979 C.3     1  LIG1       -0.0586
    114 H           9.8514   28.6487   10.9166 H       1  LIG1        0.0235
    115 H          10.7425   29.3204    9.7695 H       1  LIG1        0.0235
    116 H          10.7037   27.7280    9.9231 H       1  LIG1        0.0235
    117 C           7.0463   25.8524   13.2356 C.ar    1  LIG1       -0.0355
    118 C           8.3509   25.3857   13.3162 C.ar    1  LIG1       -0.0577
    119 H           8.6953   24.8440   12.6160 H       1  LIG1        0.0621
    120 C           9.1617   25.6941   14.3972 C.ar    1  LIG1       -0.0615
    121 H          10.0522   25.3649   14.4309 H       1  LIG1        0.0618
    122 C           8.6772   26.4781   15.4252 C.ar    1  LIG1       -0.0617
    123 H           9.2344   26.7018   16.1617 H       1  LIG1        0.0618
    124 C           7.3862   26.9306   15.3716 C.ar    1  LIG1       -0.0615
    125 H           7.0448   27.4635   16.0800 H       1  LIG1        0.0618
    126 C           6.5699   26.6170   14.2908 C.ar    1  LIG1       -0.0577
    127 H           5.6734   26.9311   14.2746 H       1  LIG1        0.0621
    128 C           4.7594   25.9196   12.1260 C.ar    1  LIG1       -0.0355
    129 C           4.4091   27.2259   11.8237 C.ar    1  LIG1       -0.0577
    130 H           5.0706   27.8286   11.5048 H       1  LIG1        0.0621
    131 C           3.1020   27.6609   11.9824 C.ar    1  LIG1       -0.0615
    132 H           2.8746   28.5597   11.7744 H       1  LIG1        0.0618
    133 C           2.1338   26.7981   12.4390 C.ar    1  LIG1       -0.0617
    134 H           1.2399   27.0990   12.5498 H       1  LIG1        0.0618
    135 C           2.4660   25.5021   12.7335 C.ar    1  LIG1       -0.0615
    136 H           1.7985   24.9027   13.0458 H       1  LIG1        0.0618
    137 C           3.7709   25.0612   12.5779 C.ar    1  LIG1       -0.0577
    138 H           3.9896   24.1599   12.7836 H       1  LIG1        0.0621
    139 O           8.2604   19.9977    7.6166 O.3     2  HOH2       -0.4105
    140 H           7.4379   20.5234    7.8975 H       0  HOH0        0.2052
    141 H           7.8739   19.1047    7.6498 H       0  HOH0        0.2052
    142 O           9.1148   20.6142   10.0683 O.3     3  HOH3       -0.4105
    143 H           8.8499   20.2098    9.0297 H       0  HOH0        0.2052
    144 H           9.9375   20.9677    9.8631 H       0  HOH0        0.2052
@<TRIPOS>BOND
     1   102   101    1
     2   104   103    1
     3   101   103   ar
     4   101    99   ar
     5   103   105   ar
     6    57    56    1
     7   100    99    1
     8    99    98   ar
     9    93    92    1
    10    91    90    1
    11    56    54   ar
    12    56    58   ar
    13    55    54    1
    14   105   106    1
    15   105   107   ar
    16    92    90   ar
    17    92    94   ar
    18    90    88   ar
    19    59    58    1
    20    54    52   ar
    21    58    60   ar
    22    94    95    1
    23    94    96   ar
    24    88    89    1
    25    88    87   ar
    26    98   107   ar
    27    98    81    1
    28   107   108    1
    29    96    87   ar
    30    96    97    1
    31    87    81    1
    32    52    53    1
    33    52    51   ar
    34    81    82    1
    35    81    74    1
    36    60    61    1
    37    60    51   ar
    38    76    75    1
    39   139   141    1
    40   139   140    1
    41    51    19    1
    42    84    83    1
    43    64    63    1
    44    75    74   ar
    45    75    77   ar
    46    74    73   ar
    47   110   109    1
    48    66    65    1
    49     6     1    2
    50    20    19    1
    51    63    65   ar
    52    63    62   ar
    53   111   109    1
    54    19    62    1
    55    19    14    1
    56   143   142    1
    57    83   109    1
    58    83    77    1
    59    83   113    1
    60   109   112    1
    61    65    67   ar
    62    77    78   ar
    63    44    43    1
    64    62    71   ar
    65    13    12    1
    66    73     3    1
    67    73    80   ar
    68     3     1    1
    69   115   113    1
    70   144   142    1
    71   116   113    1
    72     1     4    1
    73     1     2    1
    74   113   114    1
    75    14    12   ar
    76    14     7   ar
    77    50    47    1
    78    12    11   ar
    79    67    68    1
    80    67    69   ar
    81    43    45    1
    82    43    46    1
    83    43    17    1
    84    78    80   ar
    85    78    79    1
    86     5     4    1
    87    71    69   ar
    88    71    72    1
    89    80    85    1
    90    69    70    1
    91     7     2    1
    92     7     8   ar
    93    47    49    1
    94    47    17    1
    95    47    48    1
    96    11    17    1
    97    11     9   ar
    98    17    18    1
    99   130   129    1
   100   132   131    1
   101   129   131   ar
   102   129   128   ar
   103     8     9   ar
   104     8    15    1
   105     9    10    1
   106   131   133   ar
   107    85    86    1
   108    85   128    1
   109    85   117    1
   110   128   137   ar
   111    16    15    1
   112    42    41    1
   113   133   134    1
   114   133   135   ar
   115   137   135   ar
   116   137   138    1
   117   119   118    1
   118   135   136    1
   119    15    32    1
   120    15    21    1
   121    41    32   ar
   122    41    39   ar
   123   117   118   ar
   124   117   126   ar
   125    40    39    1
   126   118   120   ar
   127    32    33   ar
   128    39    37   ar
   129    21    22   ar
   130    21    30   ar
   131    23    22    1
   132    31    30    1
   133   127   126    1
   134   126   124   ar
   135    22    24   ar
   136    30    28   ar
   137   120   121    1
   138   120   122   ar
   139    33    34    1
   140    33    35   ar
   141    37    38    1
   142    37    35   ar
   143    24    25    1
   144    24    26   ar
   145    28    29    1
   146    28    26   ar
   147    35    36    1
   148   124   122   ar
   149   124   125    1
   150   122   123    1
   151    26    27    1
