@<TRIPOS>MOLECULE
C36 H44 O10, C12 H16 N4, 2(F6 P)
 71 70 0 0 0
SMALL
GASTEIGER

@<TRIPOS>ATOM
      1 P           8.5210    5.6937    2.8738 P.3     1  LIG1        0.4568
      2 P           5.6937    8.8020    8.6213 P.3     2  LIG2        0.4568
      3 F           9.6472    6.6855    2.3158 F       1  LIG1       -0.1523
      4 F           8.5219    4.9066    1.4810 F       1  LIG1       -0.1523
      5 F           7.3922    6.6805    2.3156 F       1  LIG1       -0.1523
      6 F           4.7303    7.6842    8.0098 F       2  LIG2       -0.1523
      7 F           6.5842    8.7387    7.3385 F       2  LIG2       -0.1523
      8 F           4.7895    9.9093    7.9546 F       2  LIG2       -0.1523
      9 O           9.5823    3.8262   10.6670 O.3     3  LIG3       -0.4891
     10 O           9.2580    4.1040   13.5044 O.3     3  LIG3       -0.3742
     11 O           3.0543    1.9322   12.0811 O.3     3  LIG3       -0.2324
     12 O           4.7237    1.4526   14.4399 O.3     3  LIG3       -0.3751
     13 O           7.3380    2.4460   14.8080 O.3     3  LIG3       -0.3752
     14 N           6.0852    4.0289   11.0900 N.pl3   4  LIG4       -0.3102
     15 N           6.1173    1.8584   11.0771 N.pl3   4  LIG4       -0.3102
     16 C           5.6937    1.4781    8.6213 C.2     4  LIG4       -0.0370
     17 H           5.6937    0.5284    8.6213 H       4  LIG4        0.0637
     18 C           5.8866    2.2319    9.7432 C.2     4  LIG4        0.0523
     19 C           5.8805    3.6371    9.7662 C.2     4  LIG4        0.0523
     20 C           5.6937    4.4297    8.6213 C.2     4  LIG4       -0.0370
     21 H           5.6937    5.3794    8.6213 H       4  LIG4        0.0637
     22 C           6.0740    5.4272   11.5595 C.3     4  LIG4        0.0026
     23 H           5.1630    5.7848   11.5020 H       4  LIG4        0.0428
     24 H           6.6730    5.9647   11.0008 H       4  LIG4        0.0428
     25 H           6.3792    5.4614   12.4906 H       4  LIG4        0.0428
     26 C           6.2175    2.9493   11.8147 C.3     4  LIG4        0.1256
     27 H           6.3678    2.9493   12.7527 H       4  LIG4        0.0746
     28 C           6.2380    0.4828   11.5342 C.3     4  LIG4        0.0026
     29 H           7.1217    0.1344   11.2928 H       4  LIG4        0.0428
     30 H           5.5457   -0.0660   11.1089 H       4  LIG4        0.0428
     31 H           6.1287    0.4487   12.5067 H       4  LIG4        0.0428
     32 C           8.6499    1.7081    6.4855 C.ar    3  LIG3       -0.0095
     33 C           8.8321    0.4828    7.0580 C.ar    3  LIG3       -0.0534
     34 H           8.7592   -0.3097    6.5384 H       3  LIG3        0.0624
     35 C           9.1281    0.4213    8.4121 C.ar    3  LIG3       -0.0605
     36 H           9.2466   -0.4304    8.8144 H       3  LIG3        0.0618
     37 C           9.2557    1.5259    9.1915 C.ar    3  LIG3       -0.0505
     38 H           9.4447    1.4348   10.1180 H       3  LIG3        0.0625
     39 C           9.1060    2.8172    8.6213 C.ar    3  LIG3        0.0244
     40 C           8.7847    2.9152    7.2396 C.ar    3  LIG3       -0.0067
     41 C           8.6521    4.1906    6.6235 C.ar    3  LIG3       -0.0532
     42 H           8.4654    4.2566    5.6924 H       3  LIG3        0.0624
     43 C           8.7934    5.3202    7.3891 C.ar    3  LIG3       -0.0577
     44 H           8.6658    6.1742    6.9890 H       3  LIG3        0.0619
     45 C           9.1281    5.2382    8.7547 C.ar    3  LIG3       -0.0193
     46 H           9.2602    6.0308    9.2628 H       3  LIG3        0.0654
     47 C           9.2625    4.0106    9.3478 C.ar    3  LIG3        0.1283
     48 C           9.8752    4.9831   11.4376 C.3     3  LIG3        0.1129
     49 H           9.0598    5.5434   11.5089 H       3  LIG3        0.0720
     50 H          10.5698    5.5161   10.9755 H       3  LIG3        0.0720
     51 C          10.3466    4.6415   12.7871 C.3     3  LIG3        0.0818
     52 H          11.0799    3.9765   12.7343 H       3  LIG3        0.0594
     53 H          10.6905    5.4500   13.2447 H       3  LIG3        0.0594
     54 C           9.5290    2.7626   13.5872 C.3     3  LIG3        0.0711
     55 H          10.5037    2.6032   13.6723 H       3  LIG3        0.0583
     56 H           9.1919    2.2820   12.7917 H       3  LIG3        0.0583
     57 C           2.9425    0.8267   13.0079 C.3     3  LIG3        0.1061
     58 H           3.5483    0.0911   12.7389 H       3  LIG3        0.0615
     59 H           2.0156    0.4828   13.0194 H       3  LIG3        0.0615
     60 C           3.3228    1.3460   14.3551 C.3     3  LIG3        0.0741
     61 H           2.9083    2.2319   14.5022 H       3  LIG3        0.0584
     62 H           2.9903    0.7288   15.0563 H       3  LIG3        0.0584
     63 C           5.1312    2.1203   15.6494 C.3     3  LIG3        0.0711
     64 H           4.6256    1.7673   16.4242 H       3  LIG3        0.0583
     65 H           4.9626    3.0928   15.5805 H       3  LIG3        0.0583
     66 C           6.5774    1.8653   15.8219 C.3     3  LIG3        0.0711
     67 H           6.8689    2.2251   16.6955 H       3  LIG3        0.0583
     68 H           6.7345    0.8882   15.8288 H       3  LIG3        0.0583
     69 C           8.7911    2.3253   14.8471 C.3     3  LIG3        0.0711
     70 H           9.0211    1.3802   15.0287 H       3  LIG3        0.0583
     71 H           9.1281    2.8628   15.6057 H       3  LIG3        0.0583
@<TRIPOS>BOND
     1     4     1    1
     2     5     1    1
     3     3     1    1
     4    42    41    1
     5    32    33   ar
     6    32    40   ar
     7    34    33    1
     8    41    40   ar
     9    41    43   ar
    10    44    43    1
    11    33    35   ar
    12    40    39   ar
    13     7     2    1
    14    43    45   ar
    15     8     2    1
    16     6     2    1
    17    35    36    1
    18    35    37   ar
    19    21    20    1
    20    20    19    2
    21    17    16    1
    22    16    18    2
    23    39    37   ar
    24    39    47   ar
    25    45    46    1
    26    45    47   ar
    27    37    38    1
    28    47     9    1
    29    18    19    1
    30    18    15    1
    31    19    14    1
    32     9    48    1
    33    50    48    1
    34    24    22    1
    35    15    28    1
    36    15    26    1
    37    14    22    1
    38    14    26    1
    39    30    28    1
    40    29    28    1
    41    48    49    1
    42    48    51    1
    43    23    22    1
    44    28    31    1
    45    22    25    1
    46    26    27    1
    47    11    57    1
    48    52    51    1
    49    58    57    1
    50    51    53    1
    51    51    10    1
    52    56    54    1
    53    57    59    1
    54    57    60    1
    55    10    54    1
    56    54    55    1
    57    54    69    1
    58    60    12    1
    59    60    61    1
    60    60    62    1
    61    12    63    1
    62    13    69    1
    63    13    66    1
    64    69    70    1
    65    69    71    1
    66    65    63    1
    67    63    66    1
    68    63    64    1
    69    66    68    1
    70    66    67    1
