@<TRIPOS>MOLECULE
?
 54 56 0 0 0
SMALL
GASTEIGER

@<TRIPOS>ATOM
      1 O          -2.3449   -3.0030   -6.5226 O.2     1  LIG1       -0.4879
      2 O          -1.2846   -8.7676  -14.1960 O.co2   2  LIG2       -0.2431
      3 N          -1.4418   -0.6409   -7.2669 N.pl3   1  LIG1       -0.3317
      4 O          -1.9154   -5.0420   -8.3466 O.3     1  LIG1       -0.3881
      5 H          -1.5641   -4.3282   -8.5442 H       1  LIG1        0.2099
      6 O          -2.8619   -7.3648  -13.4489 O.co2   2  LIG2       -0.2431
      7 O          -3.7038   -8.9948  -11.5978 O.3     2  LIG2       -0.3761
      8 H          -4.0265   -8.3453  -11.9793 H       2  LIG2        0.2110
      9 C          -3.2843    0.4902   -6.2018 C.2     1  LIG1       -0.0140
     10 C          -2.7557   -4.3480   -6.1774 C.3     1  LIG1        0.1255
     11 H          -3.6801   -4.5048   -6.4658 H       1  LIG1        0.0759
     12 C          -3.1548   -1.9523   -6.1942 C.2     1  LIG1        0.1288
     13 C          -0.9060    0.5199   -7.6164 C.2     1  LIG1       -0.0096
     14 H          -0.1113    0.5285   -8.1002 H       1  LIG1        0.0778
     15 C          -2.6033   -0.7002   -6.5482 C.3     1  LIG1        0.1473
     16 C          -1.3287   -9.2541  -11.2423 C.ar    2  LIG2       -0.0083
     17 C          -4.3653   -1.9968   -5.5868 C.2     1  LIG1       -0.0215
     18 H          -4.7543   -2.8192   -5.3945 H       1  LIG1        0.0651
     19 C          -2.2176   -8.4058  -13.3970 C.2     2  LIG2        0.3884
     20 C          -2.4797   -9.3492  -12.2174 C.3     2  LIG2        0.1810
     21 H          -2.5432  -10.2692  -12.5501 H       2  LIG2        0.0763
     22 C          -1.8033   -5.2544   -6.9495 C.3     1  LIG1        0.0920
     23 H          -0.8834   -5.0716   -6.6672 H       1  LIG1        0.0630
     24 C          -2.6198   -4.6011   -4.6727 C.3     1  LIG1       -0.0133
     25 H          -1.7060   -4.4418   -4.3919 H       1  LIG1        0.0302
     26 H          -3.2014   -3.9997   -4.1813 H       1  LIG1        0.0302
     27 C          -4.5075    0.4001   -5.5135 C.2     1  LIG1       -0.0559
     28 H          -4.9502    1.1719   -5.2450 H       1  LIG1        0.0621
     29 C          -2.6728    1.7091   -6.5696 C.2     1  LIG1       -0.0549
     30 H          -3.0713    2.5130   -6.3239 H       1  LIG1        0.0621
     31 C          -5.0346   -0.8162   -5.2465 C.2     1  LIG1       -0.0582
     32 H          -5.8632   -0.8681   -4.8268 H       1  LIG1        0.0619
     33 C          -3.0082   -6.0546   -4.3889 C.3     1  LIG1       -0.0495
     34 H          -2.9488   -6.2287   -3.4351 H       1  LIG1        0.0266
     35 H          -3.9256   -6.2089   -4.6666 H       1  LIG1        0.0266
     36 C          -1.5100    1.7239   -7.2761 C.2     1  LIG1       -0.0479
     37 H          -1.1245    2.5315   -7.5279 H       1  LIG1        0.0630
     38 C          -0.3690  -10.2420  -11.1522 C.ar    2  LIG2       -0.0556
     39 H          -0.4522  -11.0163  -11.6604 H       2  LIG2        0.0621
     40 C          -1.1788   -8.1131  -10.4762 C.ar    2  LIG2       -0.0556
     41 H          -1.8229   -7.4438  -10.5159 H       2  LIG2        0.0621
     42 C          -2.1452   -6.7066   -6.6413 C.3     1  LIG1       -0.0234
     43 H          -1.5218   -7.2882   -7.1052 H       1  LIG1        0.0291
     44 H          -3.0368   -6.9029   -6.9678 H       1  LIG1        0.0291
     45 C          -2.0819   -6.9931   -5.1381 C.3     1  LIG1       -0.0505
     46 H          -2.3428   -7.9130   -4.9703 H       1  LIG1        0.0266
     47 H          -1.1726   -6.8758   -4.8223 H       1  LIG1        0.0266
     48 C           0.7183  -10.0852  -10.3037 C.ar    2  LIG2       -0.0614
     49 H           1.3494  -10.7644  -10.2290 H       2  LIG2        0.0618
     50 C          -0.0747   -7.9575   -9.6460 C.ar    2  LIG2       -0.0614
     51 H           0.0173   -7.1832   -9.1394 H       2  LIG2        0.0618
     52 C           0.8681   -8.9256   -9.5713 C.ar    2  LIG2       -0.0617
     53 H           1.6143   -8.8096   -9.0280 H       2  LIG2        0.0618
     54 H          -1.0063   -1.3460   -7.5233 H       1  LIG1        0.1469
@<TRIPOS>BOND
     1     2    19   ar
     2     6    19   ar
     3    19    20    1
     4    21    20    1
     5    20     7    1
     6    20    16    1
     7     8     7    1
     8    39    38    1
     9    16    38   ar
    10    16    40   ar
    11    38    48   ar
    12    41    40    1
    13    40    50   ar
    14    48    49    1
    15    48    52   ar
    16    50    52   ar
    17    50    51    1
    18    52    53    1
    19     5     4    1
    20     4    22    1
    21    14    13    1
    22    13    36    2
    23    13     3    1
    24    37    36    1
    25    54     3    1
    26    36    29    1
    27     3    15    1
    28    43    42    1
    29    44    42    1
    30    22    23    1
    31    22    42    1
    32    22    10    1
    33    42    45    1
    34    29    30    1
    35    29     9    2
    36    15     9    1
    37    15    12    1
    38     1    12    1
    39     1    10    1
    40    11    10    1
    41     9    27    1
    42    12    17    2
    43    10    24    1
    44    17    18    1
    45    17    31    1
    46    27    31    2
    47    27    28    1
    48    31    32    1
    49    45    46    1
    50    45    47    1
    51    45    33    1
    52    24    25    1
    53    24    33    1
    54    24    26    1
    55    35    33    1
    56    33    34    1
