@<TRIPOS>MOLECULE
C70 H62 O4 P, C6 H16 N, 2(C2 H3 N)
 172 178 0 0 0
SMALL
GASTEIGER

@<TRIPOS>ATOM
      1 P           0.1102    1.3797   16.5717 P.3     1  LIG1        0.3264
      2 O           0.0080    2.8987   16.0499 O.3     1  LIG1       -0.4324
      3 O           0.5023    1.6793   18.1176 O.3     1  LIG1       -0.4324
      4 O          -1.2849    0.8621   16.5037 O.3     1  LIG1       -0.4172
      5 O           1.1860    0.6067   15.9189 O.2     1  LIG1       -0.4990
      6 C           1.0966    3.7746   15.9278 C.ar    1  LIG1        0.1369
      7 C           1.8917    3.7195   14.7838 C.ar    1  LIG1        0.0070
      8 C           2.9301    4.6408   14.6596 C.ar    1  LIG1       -0.0507
      9 H           3.4869    4.6079   13.8906 H       1  LIG1        0.0625
     10 C           3.1735    5.6050   15.6280 C.ar    1  LIG1       -0.0440
     11 C           2.3227    5.6601   16.7271 C.ar    1  LIG1       -0.0507
     12 H           2.4665    6.3326   17.3825 H       1  LIG1        0.0625
     13 C           1.2676    4.7670   16.9045 C.ar    1  LIG1        0.0070
     14 C           1.5954    2.7485   13.6479 C.3     1  LIG1        0.0377
     15 H           1.1794    1.9427   14.0692 H       1  LIG1        0.0447
     16 C           0.5605    3.3030   12.6702 C.ar    1  LIG1       -0.0355
     17 C           0.0212    4.5730   12.7628 C.ar    1  LIG1       -0.0577
     18 H           0.3322    5.1630   13.4393 H       1  LIG1        0.0621
     19 C          -0.9661    5.0021   11.8866 C.ar    1  LIG1       -0.0615
     20 H          -1.3313    5.8745   11.9761 H       1  LIG1        0.0618
     21 C          -1.4202    4.1648   10.8841 C.ar    1  LIG1       -0.0617
     22 H          -2.0945    4.4581   10.2825 H       1  LIG1        0.0618
     23 C          -0.8832    2.8980   10.7663 C.ar    1  LIG1       -0.0615
     24 H          -1.1832    2.3184   10.0760 H       1  LIG1        0.0618
     25 C           0.0899    2.4708   11.6509 C.ar    1  LIG1       -0.0577
     26 H           0.4456    1.5942   11.5639 H       1  LIG1        0.0621
     27 C           2.8792    2.2674   12.9814 C.ar    1  LIG1       -0.0355
     28 C           3.3636    2.8015   11.7901 C.ar    1  LIG1       -0.0577
     29 H           2.8855    3.4993   11.3576 H       1  LIG1        0.0621
     30 C           4.5430    2.3208   11.2285 C.ar    1  LIG1       -0.0615
     31 H           4.8679    2.6947   10.4178 H       1  LIG1        0.0618
     32 C           5.2401    1.3053   11.8436 C.ar    1  LIG1       -0.0617
     33 H           6.0315    0.9618   11.4460 H       1  LIG1        0.0618
     34 C           4.7849    0.7871   13.0417 C.ar    1  LIG1       -0.0615
     35 H           5.2731    0.0980   13.4769 H       1  LIG1        0.0618
     36 C           3.6162    1.2724   13.6083 C.ar    1  LIG1       -0.0577
     37 H           3.3158    0.9189   14.4374 H       1  LIG1        0.0621
     38 C           4.3242    6.5851   15.4808 C.3     1  LIG1       -0.0215
     39 H           4.4966    6.9841   16.3816 H       1  LIG1        0.0343
     40 C           3.9666    7.7269   14.5339 C.3     1  LIG1       -0.0586
     41 H           3.8530    7.3750   13.6263 H       1  LIG1        0.0235
     42 H           4.6857    8.3926   14.5386 H       1  LIG1        0.0235
     43 H           3.1313    8.1462   14.8286 H       1  LIG1        0.0235
     44 C           5.6104    5.9115   15.0245 C.3     1  LIG1       -0.0586
     45 H           5.8195    5.1658   15.6251 H       1  LIG1        0.0235
     46 H           6.3438    6.5613   15.0430 H       1  LIG1        0.0235
     47 H           5.4961    5.5736   14.1118 H       1  LIG1        0.0235
     48 C           0.3143    4.8476   18.0967 C.3     1  LIG1        0.0377
     49 H           0.2854    3.9332   18.5005 H       1  LIG1        0.0447
     50 C           0.7881    5.7953   19.1983 C.ar    1  LIG1       -0.0355
     51 C           1.3263    5.2928   20.3748 C.ar    1  LIG1       -0.0577
     52 H           1.4294    4.3543   20.4800 H       1  LIG1        0.0621
     53 C           1.7163    6.1460   21.4018 C.ar    1  LIG1       -0.0615
     54 H           2.0739    5.7863   22.2052 H       1  LIG1        0.0618
     55 C           1.5864    7.5132   21.2592 C.ar    1  LIG1       -0.0617
     56 H           1.8444    8.0946   21.9649 H       1  LIG1        0.0618
     57 C           1.0786    8.0295   20.0834 C.ar    1  LIG1       -0.0615
     58 H           1.0109    8.9701   19.9695 H       1  LIG1        0.0618
     59 C           0.6676    7.1791   19.0687 C.ar    1  LIG1       -0.0577
     60 H           0.2982    7.5442   18.2731 H       1  LIG1        0.0621
     61 C          -1.1253    5.2024   17.7170 C.ar    1  LIG1       -0.0355
     62 C          -1.4881    5.7425   16.4883 C.ar    1  LIG1       -0.0577
     63 H          -0.8296    5.8709   15.8157 H       1  LIG1        0.0621
     64 C          -2.8126    6.0964   16.2383 C.ar    1  LIG1       -0.0615
     65 H          -3.0547    6.4527   15.3916 H       1  LIG1        0.0618
     66 C          -3.7751    5.9317   17.2148 C.ar    1  LIG1       -0.0617
     67 H          -4.6734    6.1906   17.0462 H       1  LIG1        0.0618
     68 C          -3.4279    5.3882   18.4411 C.ar    1  LIG1       -0.0615
     69 H          -4.0881    5.2708   19.1140 H       1  LIG1        0.0618
     70 C          -2.1167    5.0166   18.6831 C.ar    1  LIG1       -0.0577
     71 H          -1.8875    4.6291   19.5195 H       1  LIG1        0.0621
     72 C           0.9012    0.6535   18.9868 C.ar    1  LIG1        0.1369
     73 C           2.2577    0.3438   19.0998 C.ar    1  LIG1        0.0070
     74 C           2.6159   -0.6493   20.0158 C.ar    1  LIG1       -0.0507
     75 H           3.5331   -0.8823   20.0990 H       1  LIG1        0.0625
     76 C           1.6861   -1.3106   20.8104 C.ar    1  LIG1       -0.0440
     77 C           0.3491   -0.9503   20.6737 C.ar    1  LIG1       -0.0507
     78 H          -0.2997   -1.3810   21.2176 H       1  LIG1        0.0625
     79 C          -0.0720    0.0220   19.7649 C.ar    1  LIG1        0.0070
     80 C           3.3115    1.0693   18.2705 C.3     1  LIG1        0.0377
     81 H           2.8635    1.3783   17.4315 H       1  LIG1        0.0447
     82 C           3.8665    2.3060   18.9622 C.ar    1  LIG1       -0.0355
     83 C           4.4116    3.3181   18.1781 C.ar    1  LIG1       -0.0577
     84 H           4.3693    3.2514   17.2314 H       1  LIG1        0.0621
     85 C           5.0165    4.4235   18.7598 C.ar    1  LIG1       -0.0615
     86 H           5.3841    5.1053   18.2098 H       1  LIG1        0.0618
     87 C           5.0864    4.5374   20.1371 C.ar    1  LIG1       -0.0617
     88 H           5.5143    5.2867   20.5345 H       1  LIG1        0.0618
     89 C           4.5269    3.5485   20.9323 C.ar    1  LIG1       -0.0615
     90 H           4.5594    3.6264   21.8786 H       1  LIG1        0.0618
     91 C           3.9188    2.4439   20.3482 C.ar    1  LIG1       -0.0577
     92 H           3.5337    1.7739   20.9007 H       1  LIG1        0.0621
     93 C           4.4202    0.0994   17.8567 C.ar    1  LIG1       -0.0355
     94 C           5.6217    0.0013   18.5548 C.ar    1  LIG1       -0.0577
     95 H           5.8030    0.6062   19.2645 H       1  LIG1        0.0621
     96 C           6.5578   -0.9701   18.2254 C.ar    1  LIG1       -0.0615
     97 H           7.3673   -1.0344   18.7185 H       1  LIG1        0.0618
     98 C           6.3150   -1.8441   17.1818 C.ar    1  LIG1       -0.0617
     99 H           6.9524   -2.5130   16.9607 H       1  LIG1        0.0618
    100 C           5.1364   -1.7389   16.4598 C.ar    1  LIG1       -0.0615
    101 H           4.9736   -2.3265   15.7312 H       1  LIG1        0.0618
    102 C           4.1953   -0.7806   16.7967 C.ar    1  LIG1       -0.0577
    103 H           3.3872   -0.7214   16.3005 H       1  LIG1        0.0621
    104 C           2.1010   -2.4265   21.7489 C.3     1  LIG1       -0.0215
    105 H           3.0999   -2.4722   21.7401 H       1  LIG1        0.0343
    106 C           1.6652   -2.1587   23.1877 C.3     1  LIG1       -0.0586
    107 H           2.0293   -1.2986   23.4845 H       1  LIG1        0.0235
    108 H           1.9999   -2.8732   23.7689 H       1  LIG1        0.0235
    109 H           0.6865   -2.1321   23.2331 H       1  LIG1        0.0235
    110 C           1.5760   -3.7701   21.2617 C.3     1  LIG1       -0.0586
    111 H           0.5961   -3.7628   21.2770 H       1  LIG1        0.0235
    112 H           1.9066   -4.4821   21.8482 H       1  LIG1        0.0235
    113 H           1.8872   -3.9299   20.3463 H       1  LIG1        0.0235
    114 C          -1.5533    0.3614   19.6250 C.3     1  LIG1        0.0377
    115 H          -1.6798    0.6999   18.6926 H       1  LIG1        0.0447
    116 C          -2.3639   -0.9221   19.7322 C.ar    1  LIG1       -0.0355
    117 C          -2.3825   -1.7689   18.6226 C.ar    1  LIG1       -0.0577
    118 H          -1.9825   -1.4869   17.8084 H       1  LIG1        0.0621
    119 C          -2.9778   -3.0139   18.6983 C.ar    1  LIG1       -0.0615
    120 H          -2.9615   -3.5914   17.9442 H       1  LIG1        0.0618
    121 C          -3.5976   -3.4254   19.8662 C.ar    1  LIG1       -0.0617
    122 H          -4.0135   -4.2781   19.9126 H       1  LIG1        0.0618
    123 C          -3.6062   -2.5844   20.9651 C.ar    1  LIG1       -0.0615
    124 H          -4.0373   -2.8565   21.7666 H       1  LIG1        0.0618
    125 C          -2.9858   -1.3426   20.8986 C.ar    1  LIG1       -0.0577
    126 H          -2.9876   -0.7754   21.6608 H       1  LIG1        0.0621
    127 C          -2.0115    1.4809   20.5586 C.ar    1  LIG1       -0.0355
    128 C          -1.1220    2.1959   21.3529 C.ar    1  LIG1       -0.0577
    129 H          -0.2012    1.9625   21.3562 H       1  LIG1        0.0621
    130 C          -1.5691    3.2502   22.1429 C.ar    1  LIG1       -0.0615
    131 H          -0.9516    3.7314   22.6812 H       1  LIG1        0.0618
    132 C          -2.9038    3.6018   22.1497 C.ar    1  LIG1       -0.0617
    133 H          -3.2060    4.3200   22.6933 H       1  LIG1        0.0618
    134 C          -3.7979    2.9030   21.3618 C.ar    1  LIG1       -0.0615
    135 H          -4.7175    3.1409   21.3624 H       1  LIG1        0.0618
    136 C          -3.3542    1.8541   20.5697 C.ar    1  LIG1       -0.0577
    137 H          -3.9752    1.3832   20.0264 H       1  LIG1        0.0621
    138 N          -3.3273    1.3121   14.9431 N.4     2  LIG2        0.2346
    139 C          -3.0315    2.5892   14.2302 C.3     2  LIG2       -0.0348
    140 H          -2.1840    2.4854   13.7291 H       2  LIG2        0.0812
    141 H          -2.8980    3.3049   14.9010 H       2  LIG2        0.0812
    142 C          -4.1169    3.0210   13.2671 C.3     2  LIG2       -0.0245
    143 H          -4.2242    2.3405   12.5699 H       2  LIG2        0.0281
    144 H          -3.8675    3.8743   12.8553 H       2  LIG2        0.0281
    145 H          -4.9613    3.1267   13.7529 H       2  LIG2        0.0281
    146 C          -3.4131    0.0971   14.0559 C.3     2  LIG2       -0.0348
    147 H          -3.5917   -0.6986   14.6174 H       2  LIG2        0.0812
    148 H          -4.1765    0.2058   13.4351 H       2  LIG2        0.0812
    149 C          -2.1667   -0.1405   13.2578 C.3     2  LIG2       -0.0245
    150 H          -2.0684    0.5674   12.5872 H       2  LIG2        0.0281
    151 H          -2.2271   -1.0095   12.8087 H       2  LIG2        0.0281
    152 H          -1.3900   -0.1348   13.8552 H       2  LIG2        0.0281
    153 C          -4.5405    1.3655   15.8204 C.3     2  LIG2       -0.0348
    154 H          -5.3397    1.5170   15.2560 H       2  LIG2        0.0812
    155 H          -4.6505    0.4911   16.2714 H       2  LIG2        0.0812
    156 C          -4.4663    2.4417   16.8574 C.3     2  LIG2       -0.0245
    157 H          -3.6027    2.3923   17.3181 H       2  LIG2        0.0281
    158 H          -5.1903    2.3203   17.5066 H       2  LIG2        0.0281
    159 H          -4.5571    3.3172   16.4266 H       2  LIG2        0.0281
    160 H          -2.5520    1.1659   15.5270 H       2  LIG2        0.2033
    161 N          -4.9163    9.0848   15.3480 N.1     1  LIG1       -0.1969
    162 C          -4.1342    9.1960   16.1678 C.1     1  LIG1        0.0591
    163 C          -3.1342    9.3442   17.2114 C.3     1  LIG1        0.0232
    164 H          -2.3562    8.7872   16.9997 H       1  LIG1        0.0382
    165 H          -3.5137    9.0628   18.0699 H       1  LIG1        0.0382
    166 H          -2.8581   10.2829   17.2683 H       1  LIG1        0.0382
    167 N           7.2888    2.3811    8.9315 N.1     2  LIG2       -0.1969
    168 C           7.8799    1.4385    9.1754 C.1     2  LIG2        0.0591
    169 C           8.6230    0.2387    9.4922 C.3     2  LIG2        0.0232
    170 H           8.1236   -0.2911   10.1483 H       2  LIG2        0.0382
    171 H           9.4951    0.4838    9.8662 H       2  LIG2        0.0382
    172 H           8.7538   -0.2894    8.6773 H       2  LIG2        0.0382
@<TRIPOS>BOND
     1   172   169    1
     2   167   168    3
     3   168   169    1
     4   169   171    1
     5   169   170    1
     6    24    23    1
     7    22    21    1
     8    31    30    1
     9    23    21   ar
    10    23    25   ar
    11    21    19   ar
    12    30    28   ar
    13    30    32   ar
    14    29    28    1
    15    33    32    1
    16    26    25    1
    17    25    16   ar
    18    28    27   ar
    19    32    34   ar
    20    19    20    1
    21    19    17   ar
    22   143   142    1
    23   150   149    1
    24    16    17   ar
    25    16    14    1
    26    17    18    1
    27   151   149    1
    28   144   142    1
    29    27    36   ar
    30    27    14    1
    31    34    35    1
    32    34    36   ar
    33   149   152    1
    34   149   146    1
    35   142   145    1
    36   142   139    1
    37   148   146    1
    38    36    37    1
    39    41    40    1
    40    14    15    1
    41    14     7    1
    42   140   139    1
    43     9     8    1
    44   146   147    1
    45   146   138    1
    46    47    44    1
    47   139   141    1
    48   139   138    1
    49    40    42    1
    50    40    43    1
    51    40    38    1
    52     8     7   ar
    53     8    10   ar
    54     7     6   ar
    55   138   160    1
    56   138   153    1
    57    44    46    1
    58    44    38    1
    59    44    45    1
    60   154   153    1
    61   161   162    3
    62    65    64    1
    63    38    10    1
    64    38    39    1
    65    10    11   ar
    66   101   100    1
    67    63    62    1
    68   153   155    1
    69   153   156    1
    70     5     1    2
    71     6     2    1
    72     6    13   ar
    73     2     1    1
    74   162   163    1
    75    64    62   ar
    76    64    66   ar
    77   103   102    1
    78   159   156    1
    79   100   102   ar
    80   100    98   ar
    81    62    61   ar
    82     4     1    1
    83     1     3    1
    84    11    13   ar
    85    11    12    1
    86   102    93   ar
    87   156   157    1
    88   156   158    1
    89    13    48    1
    90    99    98    1
    91   164   163    1
    92    67    66    1
    93    98    96   ar
    94   163   166    1
    95   163   165    1
    96    66    68   ar
    97    84    83    1
    98    81    80    1
    99    61    48    1
   100    61    70   ar
   101   118   117    1
   102    93    80    1
   103    93    94   ar
   104   120   119    1
   105    48    49    1
   106    48    50    1
   107     3    72    1
   108    83    85   ar
   109    83    82   ar
   110    86    85    1
   111    96    94   ar
   112    96    97    1
   113    80    82    1
   114    80    73    1
   115    60    59    1
   116    68    70   ar
   117    68    69    1
   118    94    95    1
   119   117   119   ar
   120   117   116   ar
   121    70    71    1
   122   115   114    1
   123   119   121   ar
   124    85    87   ar
   125    82    91   ar
   126    72    73   ar
   127    72    79   ar
   128    59    50   ar
   129    59    57   ar
   130    73    74   ar
   131    50    51   ar
   132   114   116    1
   133   114    79    1
   134   114   127    1
   135   116   125   ar
   136    79    77   ar
   137   121   122    1
   138   121   123   ar
   139    58    57    1
   140    74    75    1
   141    74    76   ar
   142   137   136    1
   143    57    55   ar
   144    87    88    1
   145    87    89   ar
   146   113   110    1
   147    91    92    1
   148    91    89   ar
   149    51    52    1
   150    51    53   ar
   151   127   136   ar
   152   127   128   ar
   153   136   134   ar
   154    77    76   ar
   155    77    78    1
   156    76   104    1
   157   125   123   ar
   158   125   126    1
   159    89    90    1
   160   123   124    1
   161    55    53   ar
   162    55    56    1
   163   110   111    1
   164   110   104    1
   165   110   112    1
   166   128   129    1
   167   128   130   ar
   168   134   135    1
   169   134   132   ar
   170    53    54    1
   171   105   104    1
   172   104   106    1
   173   130   132   ar
   174   130   131    1
   175   132   133    1
   176   106   109    1
   177   106   107    1
   178   106   108    1
