@<TRIPOS>MOLECULE
1,2-O-isopropylidene-3-O-methyl-5-C-phenil-\a-D-gluco-pentofuranose
 40 42 0 0 0
SMALL
GASTEIGER

@<TRIPOS>ATOM
      1 O           5.6996    3.1391    8.6856 O.3     1  LIG1       -0.3398
      2 O           4.2112    2.6083   10.3830 O.3     1  LIG1       -0.3180
      3 O           3.9824    4.8382   10.6691 O.3     1  LIG1       -0.3382
      4 O           7.2724    5.4649    9.2697 O.3     1  LIG1       -0.3744
      5 O           5.9372    5.8906    6.3184 O.3     1  LIG1       -0.3845
      6 H           6.3586    6.4440    6.7284 H       1  LIG1        0.2103
      7 C           5.4651    3.1559   10.0656 C.3     1  LIG1        0.1914
      8 H           6.1817    2.6919   10.5479 H       1  LIG1        0.0939
      9 C           5.3785    4.6231   10.4953 C.3     1  LIG1        0.1411
     10 H           5.8997    4.8182   11.3015 H       1  LIG1        0.0675
     11 C           5.8616    5.3879    9.2749 C.3     1  LIG1        0.1181
     12 H           5.4419    6.2704    9.1998 H       1  LIG1        0.0650
     13 C           5.4288    4.4442    8.1564 C.3     1  LIG1        0.1203
     14 H           4.4654    4.5394    8.0063 H       1  LIG1        0.0653
     15 C           6.1621    4.5849    6.8276 C.3     1  LIG1        0.1089
     16 H           7.1228    4.4480    6.9673 H       1  LIG1        0.0670
     17 C           5.6516    3.5889    5.8097 C.ar    1  LIG1       -0.0166
     18 C           6.3056    2.3898    5.6101 C.ar    1  LIG1       -0.0560
     19 H           7.0785    2.1983    6.0912 H       1  LIG1        0.0621
     20 C           5.8179    1.4682    4.6956 C.ar    1  LIG1       -0.0614
     21 H           6.2635    0.6615    4.5696 H       1  LIG1        0.0618
     22 C           4.6932    1.7344    3.9823 C.ar    1  LIG1       -0.0617
     23 H           4.3758    1.1163    3.3630 H       1  LIG1        0.0618
     24 C           4.0308    2.9067    4.1749 C.ar    1  LIG1       -0.0614
     25 H           3.2556    3.0849    3.6935 H       1  LIG1        0.0618
     26 C           4.5052    3.8390    5.0843 C.ar    1  LIG1       -0.0560
     27 H           4.0474    4.6388    5.2068 H       1  LIG1        0.0621
     28 C           3.3943    3.5937   11.0320 C.3     1  LIG1        0.1682
     29 C           3.4514    3.3865   12.5283 C.3     1  LIG1       -0.0107
     30 H           3.1152    2.5136   12.7435 H       1  LIG1        0.0281
     31 H           2.9139    4.0527   12.9634 H       1  LIG1        0.0281
     32 H           4.3604    3.4631   12.8279 H       1  LIG1        0.0281
     33 C           2.0060    3.5134   10.4647 C.3     1  LIG1       -0.0107
     34 H           1.6411    2.6427   10.6346 H       1  LIG1        0.0281
     35 H           2.0381    3.6688    9.5172 H       1  LIG1        0.0281
     36 H           1.4520    4.1795   10.8783 H       1  LIG1        0.0281
     37 C           7.8062    6.4543   10.1425 C.3     1  LIG1        0.0370
     38 H           8.7617    6.4783   10.0533 H       1  LIG1        0.0524
     39 H           7.5751    6.2395   11.0495 H       1  LIG1        0.0524
     40 H           7.4413    7.3124    9.9143 H       1  LIG1        0.0524
@<TRIPOS>BOND
     1    23    22    1
     2    25    24    1
     3    22    24   ar
     4    22    20   ar
     5    24    26   ar
     6    21    20    1
     7    20    18   ar
     8    26    27    1
     9    26    17   ar
    10    18    17   ar
    11    18    19    1
    12    17    15    1
    13     5     6    1
    14     5    15    1
    15    15    16    1
    16    15    13    1
    17    14    13    1
    18    13     1    1
    19    13    11    1
    20     1     7    1
    21    12    11    1
    22     4    11    1
    23     4    37    1
    24    11     9    1
    25    35    33    1
    26    40    37    1
    27    38    37    1
    28     7     2    1
    29     7     9    1
    30     7     8    1
    31    37    39    1
    32     2    28    1
    33    33    34    1
    34    33    36    1
    35    33    28    1
    36     9     3    1
    37     9    10    1
    38     3    28    1
    39    28    29    1
    40    29    30    1
    41    29    32    1
    42    29    31    1
