@<TRIPOS>MOLECULE
2(C7 H6)
 26 26 0 0 0
SMALL
GASTEIGER

@<TRIPOS>ATOM
      1 C           6.9412    2.0559    4.7883 C.ar    1  LIG1       -0.0431
      2 C           5.7738    2.2721    5.6519 C.3     1  LIG1       -0.0011
      3 H           5.5203    1.5641    6.1990 H       1  LIG1        0.0361
      4 C           7.3651    2.9821    3.8279 C.ar    1  LIG1       -0.0583
      5 H           6.8827    3.7674    3.7020 H       1  LIG1        0.0620
      6 C           7.6798    0.8752    4.9257 C.ar    1  LIG1       -0.0583
      7 H           7.4052    0.2364    5.5434 H       1  LIG1        0.0620
      8 C           8.4925    2.7428    3.0649 C.ar    1  LIG1       -0.0615
      9 H           8.7642    3.3705    2.4348 H       1  LIG1        0.0618
     10 C           8.8084    0.6370    4.1635 C.ar    1  LIG1       -0.0615
     11 H           9.2881   -0.1515    4.2778 H       1  LIG1        0.0618
     12 C           9.2255    1.5700    3.2309 C.ar    1  LIG1       -0.0617
     13 H           9.9873    1.4161    2.7201 H       1  LIG1        0.0618
     14 C          10.2826    3.1778    9.5502 C.ar    2  LIG2       -0.0431
     15 C           9.8329    3.1835    6.7804 C.ar    2  LIG2       -0.0617
     16 H           9.6787    3.1837    5.8634 H       2  LIG2        0.0618
     17 C          10.7263    2.1210    8.7461 C.ar    2  LIG2       -0.0583
     18 H          11.1785    1.4074    9.1353 H       2  LIG2        0.0620
     19 C          10.5015    2.1221    7.3802 C.ar    2  LIG2       -0.0615
     20 H          10.7994    1.4103    6.8613 H       2  LIG2        0.0618
     21 C           9.4008    4.2358    7.5605 C.ar    2  LIG2       -0.0615
     22 H           8.9592    4.9527    7.1659 H       2  LIG2        0.0618
     23 C           9.6199    4.2307    8.9250 C.ar    2  LIG2       -0.0583
     24 H           9.3185    4.9465    9.4367 H       2  LIG2        0.0620
     25 C          10.4810    3.2610   11.0065 C.3     2  LIG2       -0.0011
     26 H          10.1026    3.9910   11.4416 H       2  LIG2        0.0361
@<TRIPOS>BOND
     1     9     8    1
     2    13    12    1
     3     8    12   ar
     4     8     4   ar
     5    12    10   ar
     6     5     4    1
     7     4     1   ar
     8    10    11    1
     9    10     6   ar
    10     1     6   ar
    11     1     2    1
    12     6     7    1
    13     2     3    1
    14    16    15    1
    15    15    19   ar
    16    15    21   ar
    17    20    19    1
    18    22    21    1
    19    19    17   ar
    20    21    23   ar
    21    17    18    1
    22    17    14   ar
    23    23    24    1
    24    23    14   ar
    25    14    25    1
    26    25    26    1
