@<TRIPOS>MOLECULE
7122074.cif
 34 36 0 0 0
SMALL
GASTEIGER

@<TRIPOS>ATOM
      1 N           0.8528    7.1442    0.9305 N.ar    1  LIG1       -0.2089
      2 O          -2.6343    9.5163   -0.2982 O.3     1  LIG1       -0.4649
      3 O          -3.3742    8.8454   -2.3139 O.2     1  LIG1       -0.2456
      4 O           3.0564    6.6505    0.9259 O.2     1  LIG1       -0.4353
      5 C          -2.4499    9.1183   -1.5782 C.2     1  LIG1        0.3317
      6 C          -1.0421    9.0421   -1.9678 C.2     1  LIG1        0.0231
      7 H          -0.8362    9.0160   -2.8948 H       1  LIG1        0.0689
      8 C          -0.0427    9.0066   -1.1081 C.2     1  LIG1       -0.0471
      9 H          -0.2475    9.0443   -0.1811 H       1  LIG1        0.0626
     10 C           1.3871    8.9128   -1.5068 C.ar    1  LIG1       -0.0126
     11 C           1.8197    9.6319   -2.6458 C.ar    1  LIG1       -0.0539
     12 H           1.1855   10.1367   -3.1410 H       1  LIG1        0.0624
     13 C           3.1331    9.6232   -3.0582 C.ar    1  LIG1       -0.0612
     14 H           3.3970   10.1128   -3.8281 H       1  LIG1        0.0618
     15 C           4.0590    8.9007   -2.3487 C.ar    1  LIG1       -0.0610
     16 H           4.9681    8.9007   -2.6269 H       1  LIG1        0.0618
     17 C           3.6823    8.1688   -1.2252 C.ar    1  LIG1       -0.0489
     18 H           4.3322    7.6668   -0.7471 H       1  LIG1        0.0625
     19 C           2.3325    8.1695   -0.7934 C.ar    1  LIG1        0.0441
     20 C           1.9968    7.3414    0.3610 C.ar    1  LIG1        0.2290
     21 C           1.1302    6.2527    1.9826 C.ar    1  LIG1        0.1099
     22 C           0.3110    5.7021    2.9639 C.ar    1  LIG1       -0.0326
     23 H          -0.6174    5.8997    3.0005 H       1  LIG1        0.0640
     24 C           0.9010    4.8595    3.8795 C.ar    1  LIG1       -0.0595
     25 H           0.3649    4.4764    4.5644 H       1  LIG1        0.0618
     26 C           2.2509    4.5570    3.8327 C.ar    1  LIG1       -0.0582
     27 H           2.6051    3.9542    4.4753 H       1  LIG1        0.0619
     28 C           3.1211    5.1075    2.8668 C.ar    1  LIG1       -0.0171
     29 H           4.0527    4.9269    2.8331 H       1  LIG1        0.0655
     30 C           2.4631    5.9515    1.9632 C.ar    1  LIG1        0.1557
     31 C          -3.9879    9.5492    0.1622 C.3     1  LIG1        0.0820
     32 H          -4.4432   10.3282   -0.2171 H       1  LIG1        0.0661
     33 H          -3.9993    9.6057    1.1401 H       1  LIG1        0.0661
     34 H          -4.4484    8.7309   -0.1217 H       1  LIG1        0.0661
@<TRIPOS>BOND
     1    14    13    1
     2    12    11    1
     3    13    11   ar
     4    13    15   ar
     5     7     6    1
     6    11    10   ar
     7    16    15    1
     8    15    17   ar
     9     3     5    2
    10     6     5    1
    11     6     8    2
    12     5     2    1
    13    10     8    1
    14    10    19   ar
    15    17    19   ar
    16    17    18    1
    17     8     9    1
    18    19    20    1
    19     2    31    1
    20    32    31    1
    21    34    31    1
    22    31    33    1
    23    20     4   ar
    24    20     1   ar
    25     4    30   ar
    26     1    21   ar
    27    30    21   ar
    28    30    28   ar
    29    21    22   ar
    30    29    28    1
    31    28    26   ar
    32    22    23    1
    33    22    24   ar
    34    26    24   ar
    35    26    27    1
    36    24    25    1
