@<TRIPOS>MOLECULE
?
 37 40 0 0 0
SMALL
GASTEIGER

@<TRIPOS>ATOM
      1 CL         -4.8505   -3.2913   -2.9081 Cl      1  LIG1       -0.0831
      2 O          -7.7285   -8.2468   -3.1329 O.2     1  LIG1       -0.2704
      3 O          -5.3731   -6.5429   -2.5692 O.3     1  LIG1       -0.4429
      4 O          -4.3913   -7.2962   -0.7197 O.2     1  LIG1       -0.2508
      5 N          -7.8710   -6.7341   -4.8624 N.am    1  LIG1       -0.2704
      6 C          -7.2878   -5.4940   -5.1733 C.ar    1  LIG1        0.0449
      7 C          -7.3520   -4.8004   -6.3601 C.ar    1  LIG1       -0.0398
      8 H          -7.8597   -5.1123   -7.0740 H       1  LIG1        0.0636
      9 C          -6.6264   -3.6132   -6.4544 C.ar    1  LIG1       -0.0586
     10 H          -6.6600   -3.1196   -7.2417 H       1  LIG1        0.0619
     11 C          -5.8602   -3.1582   -5.4027 C.ar    1  LIG1       -0.0429
     12 H          -5.3671   -2.3744   -5.4878 H       1  LIG1        0.0632
     13 C          -5.8277   -3.8790   -4.2125 C.ar    1  LIG1        0.0502
     14 C          -6.5326   -5.0370   -4.0949 C.ar    1  LIG1        0.0450
     15 C          -6.6609   -6.0445   -2.9780 C.3     1  LIG1        0.2239
     16 C          -7.4787   -7.1796   -3.6278 C.2     1  LIG1        0.2689
     17 C          -8.6844   -7.5355   -5.7719 C.3     1  LIG1        0.0084
     18 H          -9.4676   -7.0399   -6.0223 H       1  LIG1        0.0433
     19 H          -8.9468   -8.3491   -5.3340 H       1  LIG1        0.0433
     20 H          -8.1740   -7.7457   -6.5569 H       1  LIG1        0.0433
     21 C          -5.3681   -6.8378   -1.2287 C.2     1  LIG1        0.3091
     22 C          -6.6995   -6.5137   -0.6464 C.3     1  LIG1        0.0562
     23 H          -6.6040   -6.0940    0.2224 H       1  LIG1        0.0385
     24 H          -7.2391   -7.3138   -0.5520 H       1  LIG1        0.0385
     25 C          -7.3245   -5.5510   -1.6491 C.3     1  LIG1        0.0472
     26 H          -6.9823   -4.6533   -1.4570 H       1  LIG1        0.0401
     27 C          -8.8347   -5.4696   -1.7097 C.ar    1  LIG1       -0.0391
     28 C          -9.4251   -4.2851   -2.1418 C.ar    1  LIG1       -0.0581
     29 H          -8.8907   -3.5610   -2.3759 H       1  LIG1        0.0620
     30 C         -10.8085   -4.1773   -2.2268 C.ar    1  LIG1       -0.0615
     31 H         -11.1899   -3.3765   -2.5063 H       1  LIG1        0.0618
     32 C         -11.6154   -5.2330   -1.9042 C.ar    1  LIG1       -0.0617
     33 H         -12.5399   -5.1550   -1.9787 H       1  LIG1        0.0618
     34 C         -11.0547   -6.4100   -1.4698 C.ar    1  LIG1       -0.0615
     35 H         -11.5980   -7.1280   -1.2368 H       1  LIG1        0.0618
     36 C          -9.6772   -6.5232   -1.3778 C.ar    1  LIG1       -0.0581
     37 H          -9.3078   -7.3253   -1.0866 H       1  LIG1        0.0620
@<TRIPOS>BOND
     1    10     9    1
     2     8     7    1
     3    20    17    1
     4     9     7   ar
     5     9    11   ar
     6     7     6   ar
     7    18    17    1
     8    17    19    1
     9    17     5    1
    10    12    11    1
    11    11    13   ar
    12     6     5    1
    13     6    14   ar
    14     5    16   am
    15    13    14   ar
    16    13     1    1
    17    14    15    1
    18    16     2    2
    19    16    15    1
    20    15     3    1
    21    15    25    1
    22     3    21    1
    23    31    30    1
    24    29    28    1
    25    30    28   ar
    26    30    32   ar
    27    28    27   ar
    28    33    32    1
    29    32    34   ar
    30    27    25    1
    31    27    36   ar
    32    25    26    1
    33    25    22    1
    34    34    36   ar
    35    34    35    1
    36    36    37    1
    37    21     4    2
    38    21    22    1
    39    22    24    1
    40    22    23    1
