@<TRIPOS>MOLECULE
C28 H26 N2 O6 S
 63 66 0 0 0
SMALL
GASTEIGER

@<TRIPOS>ATOM
      1 S           1.6004    3.3243    1.5109 S.O2    1  LIG1        0.0811
      2 O           3.3868    5.0876    0.0969 O.2     1  LIG1       -0.2706
      3 O           7.5397    4.5389    0.7269 O.2     1  LIG1       -0.2478
      4 O           5.9021    4.6365    2.2363 O.3     1  LIG1       -0.4631
      5 O           4.0003    3.1477   -2.2565 O.2     1  LIG1       -0.2702
      6 O           1.2235    4.5809    2.0617 O.2     1  LIG1       -0.1494
      7 O           1.2144    2.1270    2.1762 O.2     1  LIG1       -0.1494
      8 N           3.3104    3.2543    1.4320 N.am    1  LIG1       -0.1368
      9 N           5.6697    4.2310   -1.1950 N.am    1  LIG1       -0.2879
     10 H           6.3163    4.7917   -1.2795 H       1  LIG1        0.1506
     11 C           3.9449    4.1247    0.5403 C.2     1  LIG1        0.2747
     12 C           5.3747    3.7160    0.1237 C.3     1  LIG1        0.2206
     13 C           5.4839    2.1497    0.1593 C.3     1  LIG1        0.0443
     14 H           4.7788    1.7973   -0.4230 H       1  LIG1        0.0423
     15 C           5.1622    1.7104    1.5614 C.ar    1  LIG1       -0.0144
     16 C           4.0613    2.2852    2.1863 C.ar    1  LIG1        0.0636
     17 C           3.7491    1.9843    3.5024 C.ar    1  LIG1       -0.0383
     18 H           3.0393    2.4066    3.9291 H       1  LIG1        0.0637
     19 C           4.5113    1.0468    4.1675 C.ar    1  LIG1       -0.0599
     20 H           4.2983    0.8238    5.0449 H       1  LIG1        0.0618
     21 C           5.9178    0.7903    2.2633 C.ar    1  LIG1       -0.0561
     22 H           6.6631    0.4039    1.8633 H       1  LIG1        0.0621
     23 C           6.7935    1.6675   -0.3890 C.2     1  LIG1       -0.0806
     24 H           7.5748    1.8974    0.0593 H       1  LIG1        0.0573
     25 C           6.8831    0.9398   -1.4658 C.2     1  LIG1       -0.1020
     26 H           6.1144    0.6989   -1.9298 H       1  LIG1        0.0532
     27 H           7.7169    0.6627   -1.7710 H       1  LIG1        0.0532
     28 C           5.5740    0.4413    3.5593 C.ar    1  LIG1       -0.0614
     29 H           6.0648   -0.2047    4.0140 H       1  LIG1        0.0618
     30 C           6.4123    4.3519    1.0587 C.2     1  LIG1        0.3411
     31 C           6.8243    5.2220    3.2123 C.3     1  LIG1        0.0897
     32 H           7.7383    5.0911    2.9146 H       1  LIG1        0.0694
     33 H           6.6635    6.1767    3.2788 H       1  LIG1        0.0694
     34 C           6.6588    4.6518    4.4229 C.3     1  LIG1       -0.0306
     35 H           5.7230    4.5062    4.5820 H       1  LIG1        0.0262
     36 H           7.0121    5.2318    5.1010 H       1  LIG1        0.0262
     37 H           7.1218    3.8115    4.4465 H       1  LIG1        0.0262
     38 C           4.9780    3.8740   -2.3031 C.2     1  LIG1        0.2453
     39 C           5.5124    4.4145   -3.5954 C.ar    1  LIG1        0.0367
     40 C           5.1450    3.7642   -4.7641 C.ar    1  LIG1       -0.0496
     41 H           4.5783    3.0279   -4.7287 H       1  LIG1        0.0625
     42 C           5.6234    4.2117   -5.9838 C.ar    1  LIG1       -0.0610
     43 H           5.3780    3.7690   -6.7638 H       1  LIG1        0.0618
     44 C           6.4463    5.2889   -6.0560 C.ar    1  LIG1       -0.0617
     45 H           6.7713    5.5735   -6.8797 H       1  LIG1        0.0618
     46 C           6.7959    5.9540   -4.9138 C.ar    1  LIG1       -0.0610
     47 H           7.3423    6.7051   -4.9610 H       1  LIG1        0.0618
     48 C           6.3336    5.5078   -3.6830 C.ar    1  LIG1       -0.0496
     49 H           6.5849    5.9556   -2.9079 H       1  LIG1        0.0625
     50 C           1.1197    3.2220   -0.1666 C.ar    1  LIG1        0.1092
     51 C           1.1625    1.9870   -0.7835 C.ar    1  LIG1       -0.0348
     52 H           1.4647    1.2378   -0.3226 H       1  LIG1        0.0637
     53 C           0.7502    1.8846   -2.0969 C.ar    1  LIG1       -0.0570
     54 H           0.7944    1.0615   -2.5267 H       1  LIG1        0.0621
     55 C           0.2726    2.9825   -2.7842 C.ar    1  LIG1       -0.0503
     56 C           0.2385    4.2044   -2.1447 C.ar    1  LIG1       -0.0570
     57 H          -0.0818    4.9500   -2.5990 H       1  LIG1        0.0621
     58 C           0.6722    4.3379   -0.8391 C.ar    1  LIG1       -0.0348
     59 H           0.6632    5.1687   -0.4212 H       1  LIG1        0.0637
     60 C          -0.2287    2.8487   -4.1993 C.3     1  LIG1       -0.0397
     61 H           0.4420    2.4225   -4.7376 H       1  LIG1        0.0278
     62 H          -0.4194    3.7196   -4.5555 H       1  LIG1        0.0278
     63 H          -1.0292    2.3182   -4.2063 H       1  LIG1        0.0278
@<TRIPOS>BOND
     1    45    44    1
     2    43    42    1
     3    44    42   ar
     4    44    46   ar
     5    42    40   ar
     6    47    46    1
     7    46    48   ar
     8    40    41    1
     9    40    39   ar
    10    61    60    1
    11    62    60    1
    12    63    60    1
    13    60    55    1
    14    48    39   ar
    15    48    49    1
    16    39    38    1
    17    55    56   ar
    18    55    53   ar
    19    57    56    1
    20    54    53    1
    21    38     5    2
    22    38     9   am
    23    56    58   ar
    24    53    51   ar
    25    26    25    1
    26    27    25    1
    27    25    23    2
    28    10     9    1
    29     9    12    1
    30    58    59    1
    31    58    50   ar
    32    51    52    1
    33    51    50   ar
    34    14    13    1
    35    23    24    1
    36    23    13    1
    37    50     1    1
    38     2    11    2
    39    12    13    1
    40    12    11    1
    41    12    30    1
    42    13    15    1
    43    11     8   am
    44     3    30    2
    45    30     4    1
    46     8     1    1
    47     8    16    1
    48     1     6    2
    49     1     7    2
    50    15    16   ar
    51    15    21   ar
    52    22    21    1
    53    16    17   ar
    54     4    31    1
    55    21    28   ar
    56    32    31    1
    57    31    33    1
    58    31    34    1
    59    17    18    1
    60    17    19   ar
    61    28    29    1
    62    28    19   ar
    63    19    20    1
    64    34    37    1
    65    34    35    1
    66    34    36    1
