@<TRIPOS>MOLECULE
C19 H15 Cl3 N2 O3
 42 44 0 0 0
SMALL
GASTEIGER

@<TRIPOS>ATOM
      1 CL          1.4491   -1.5152    3.3699 Cl      1  LIG1       -0.0833
      2 CL          0.3833    0.9640    2.3466 Cl      1  LIG1       -0.0833
      3 CL          1.8838   -0.7807    0.6237 Cl      1  LIG1       -0.0833
      4 O           2.4469    3.3653    3.1958 O.2     1  LIG1       -0.2734
      5 O          -0.4673    4.0732    1.2436 O.2     1  LIG1       -0.2679
      6 O           3.5957    6.2098    1.2931 O.2     1  LIG1       -0.2679
      7 N           2.3555    3.6552    0.9546 N.am    1  LIG1       -0.1780
      8 N           1.7107    4.8659    1.1601 N.am    1  LIG1       -0.1400
      9 C           1.7675   -0.1451    2.2855 C.3     1  LIG1        0.1914
     10 C           3.0589    0.5278    2.7065 C.3     1  LIG1        0.0049
     11 H           3.7730   -0.1576    2.7188 H       1  LIG1        0.0313
     12 H           2.9479    0.8529    3.6347 H       1  LIG1        0.0313
     13 C           3.5422    1.7014    1.8480 C.3     1  LIG1        0.0386
     14 H           3.5109    1.4525    0.8805 H       1  LIG1        0.0393
     15 C           2.7224    2.9529    2.0863 C.2     1  LIG1        0.2397
     16 C           2.3986    6.0775    1.3431 C.2     1  LIG1        0.2710
     17 C           1.3224    7.0783    1.5748 C.ar    1  LIG1        0.0510
     18 C           1.4248    8.4419    1.7598 C.ar    1  LIG1       -0.0488
     19 H           2.2680    8.8797    1.7464 H       1  LIG1        0.0625
     20 C           0.2452    9.1521    1.9655 C.ar    1  LIG1       -0.0610
     21 H           0.2812   10.0921    2.0979 H       1  LIG1        0.0618
     22 C           0.3129    4.9827    1.3204 C.2     1  LIG1        0.2710
     23 C           0.0930    6.4310    1.5784 C.ar    1  LIG1        0.0510
     24 C          -0.9804    8.5051    1.9789 C.ar    1  LIG1       -0.0610
     25 H          -1.7700    9.0123    2.1237 H       1  LIG1        0.0618
     26 C          -1.0833    7.1248    1.7838 C.ar    1  LIG1       -0.0488
     27 H          -1.9247    6.6834    1.7915 H       1  LIG1        0.0625
     28 C           2.6411    3.3337   -0.4257 C.ar    1  LIG1        0.0567
     29 C           1.7260    2.6054   -1.1602 C.ar    1  LIG1       -0.0386
     30 H           0.9409    2.2627   -0.7498 H       1  LIG1        0.0637
     31 C           1.9715    2.3811   -2.5117 C.ar    1  LIG1       -0.0599
     32 H           1.3574    1.8693   -3.0251 H       1  LIG1        0.0618
     33 C           3.1089    2.9005   -3.1117 C.ar    1  LIG1       -0.0616
     34 H           3.2584    2.7650   -4.0394 H       1  LIG1        0.0618
     35 C           4.0252    3.6152   -2.3632 C.ar    1  LIG1       -0.0599
     36 H           4.8095    3.9567   -2.7752 H       1  LIG1        0.0618
     37 C           3.8030    3.8365   -1.0111 C.ar    1  LIG1       -0.0386
     38 H           4.4321    4.3235   -0.4918 H       1  LIG1        0.0637
     39 C           4.9895    2.0423    2.2563 C.3     1  LIG1       -0.0539
     40 H           5.3307    2.7591    1.6819 H       1  LIG1        0.0237
     41 H           5.5532    1.2477    2.1560 H       1  LIG1        0.0237
     42 H           5.0042    2.3378    3.1912 H       1  LIG1        0.0237
@<TRIPOS>BOND
     1    34    33    1
     2    33    31   ar
     3    33    35   ar
     4    32    31    1
     5    36    35    1
     6    31    29   ar
     7    35    37   ar
     8    29    30    1
     9    29    28   ar
    10    37    38    1
    11    37    28   ar
    12    28     7    1
    13     3     9    1
    14    14    13    1
    15     7     8    1
    16     7    15   am
    17     8    22   am
    18     8    16   am
    19     5    22    2
    20     6    16    2
    21    22    23    1
    22    16    17    1
    23    17    23   ar
    24    17    18   ar
    25    23    26   ar
    26    40    39    1
    27    19    18    1
    28    18    20   ar
    29    26    27    1
    30    26    24   ar
    31    13    15    1
    32    13    39    1
    33    13    10    1
    34    20    24   ar
    35    20    21    1
    36    24    25    1
    37    15     4    2
    38    41    39    1
    39    39    42    1
    40     9     2    1
    41     9    10    1
    42     9     1    1
    43    10    11    1
    44    10    12    1
