@<TRIPOS>MOLECULE
7122451.cif
 68 72 0 0 0
SMALL
GASTEIGER

@<TRIPOS>ATOM
      1 P           6.4557    3.7343    4.4649 P.3     1  LIG1        1.0000
      2 B           5.0830    1.4444    2.2071 B       1  LIG1        0.0000
      3 H           4.0831    0.9858    2.1922 H       1  LIG1        0.0000
      4 H           5.8877    0.4306    2.4681 H       1  LIG1        0.0000
      5 B           6.3163    1.0210    3.4023 B       1  LIG1        0.0000
      6 H           7.3774    1.3628    3.0807 H       1  LIG1        0.0000
      7 H           6.2168    0.3148    4.2401 H       1  LIG1        0.0000
      8 B           5.1799    2.4039    3.7757 B       1  LIG1        0.0000
      9 H           4.4286    2.1514    4.5438 H       1  LIG1        0.0000
     10 H           4.6084    2.8795    2.9554 H       1  LIG1        0.0000
     11 C           7.2181    4.6452    3.0935 C.ar    1  LIG1        0.0000
     12 C           7.9292    5.8769    3.2439 C.ar    1  LIG1        0.0000
     13 H           8.0928    6.2121    4.1173 H       1  LIG1        0.0000
     14 C           8.3830    6.5910    2.1569 C.ar    1  LIG1        0.0000
     15 H           8.8566    7.4019    2.3074 H       1  LIG1        0.0000
     16 C           8.1700    6.1611    0.8189 C.ar    1  LIG1        0.0000
     17 H           8.4861    6.6583    0.0734 H       1  LIG1        0.0000
     18 C           6.5466    3.5353   -1.5083 C.ar    1  LIG1        0.0000
     19 H           6.8362    4.0001   -2.2846 H       1  LIG1        0.0000
     20 C           5.7729    2.3551   -1.5750 C.ar    1  LIG1        0.0000
     21 H           5.5539    2.0061   -2.4314 H       1  LIG1        0.0000
     22 C           5.3188    1.6843   -0.4557 C.ar    1  LIG1        0.0000
     23 H           4.7922    0.9028   -0.5746 H       1  LIG1        0.0000
     24 C           5.6093    2.1201    0.8727 C.ar    1  LIG1        0.0000
     25 C           6.3841    3.2466    0.8936 C.ar    1  LIG1        0.0000
     26 C           7.0089    4.2592    1.8005 C.ar    1  LIG1        0.0000
     27 C           7.4857    4.9942    0.6713 C.ar    1  LIG1        0.0000
     28 C           6.8479    3.9607   -0.2404 C.ar    1  LIG1        0.0000
     29 C           5.7803    5.1194    5.4765 C.ar    1  LIG1        0.0000
     30 C           6.4846    5.6737    6.5792 C.ar    1  LIG1        0.0000
     31 C           5.8766    6.6953    7.3123 C.ar    1  LIG1        0.0000
     32 H           6.3397    7.0508    8.0612 H       1  LIG1        0.0000
     33 C           4.6306    7.2153    7.0007 C.ar    1  LIG1        0.0000
     34 C           3.9920    6.7088    5.8784 C.ar    1  LIG1        0.0000
     35 H           3.1488    7.0681    5.6298 H       1  LIG1        0.0000
     36 C           4.5411    5.6934    5.1039 C.ar    1  LIG1        0.0000
     37 C           7.8845    5.3071    7.0113 C.3     1  LIG1        0.0000
     38 H           8.2748    6.0495    7.5182 H       1  LIG1        0.0000
     39 H           8.4336    5.1277    6.2196 H       1  LIG1        0.0000
     40 H           7.8529    4.5069    7.5752 H       1  LIG1        0.0000
     41 C           4.0370    8.3375    7.8092 C.3     1  LIG1        0.0000
     42 H           4.3642    8.2839    8.7308 H       1  LIG1        0.0000
     43 H           3.0602    8.2614    7.8043 H       1  LIG1        0.0000
     44 H           4.2999    9.1971    7.4182 H       1  LIG1        0.0000
     45 C           3.7762    5.2880    3.8613 C.3     1  LIG1        0.0000
     46 H           3.3685    4.4083    4.0009 H       1  LIG1        0.0000
     47 H           4.3909    5.2453    3.0984 H       1  LIG1        0.0000
     48 H           3.0747    5.9475    3.6794 H       1  LIG1        0.0000
     49 C           7.6213    2.7849    5.5188 C.ar    1  LIG1        0.0000
     50 C           7.0643    2.2114    6.6841 C.ar    1  LIG1        0.0000
     51 C           7.8752    1.4154    7.5015 C.ar    1  LIG1        0.0000
     52 H           7.4947    1.0117    8.2739 H       1  LIG1        0.0000
     53 C           9.2110    1.1983    7.2203 C.ar    1  LIG1        0.0000
     54 C           9.7292    1.7638    6.0613 C.ar    1  LIG1        0.0000
     55 H          10.6450    1.6153    5.8538 H       1  LIG1        0.0000
     56 C           8.9668    2.5379    5.1910 C.ar    1  LIG1        0.0000
     57 C           5.6481    2.4210    7.1542 C.3     1  LIG1        0.0000
     58 H           5.2574    1.5582    7.4069 H       1  LIG1        0.0000
     59 H           5.1202    2.8207    6.4323 H       1  LIG1        0.0000
     60 H           5.6466    3.0196    7.9296 H       1  LIG1        0.0000
     61 C          10.0760    0.3720    8.1561 C.3     1  LIG1        0.0000
     62 H          10.0977   -0.5569    7.8448 H       1  LIG1        0.0000
     63 H           9.7017    0.4047    9.0611 H       1  LIG1        0.0000
     64 H          10.9860    0.7350    8.1650 H       1  LIG1        0.0000
     65 C           9.6439    3.0509    3.9426 C.3     1  LIG1        0.0000
     66 H          10.5524    2.6892    3.8920 H       1  LIG1        0.0000
     67 H           9.6829    4.0295    3.9718 H       1  LIG1        0.0000
     68 H           9.1347    2.7671    3.1554 H       1  LIG1        0.0000
@<TRIPOS>BOND
     1    21    20    1
     2    19    18    1
     3    20    18   ar
     4    20    22   ar
     5    18    28   ar
     6    23    22    1
     7    22    24   ar
     8    28    27    1
     9    28    25   ar
    10    17    16    1
    11    27    16   ar
    12    27    26   ar
    13    16    14   ar
    14    24    25   ar
    15    24     2    1
    16    25    26    1
    17    26    11   ar
    18    14    15    1
    19    14    12   ar
    20     3     2    1
    21     4     5    1
    22    10     8    1
    23     6     5    1
    24    11    12   ar
    25    11     1    1
    26    47    45    1
    27    68    65    1
    28    12    13    1
    29     5     8    1
    30     5     7    1
    31    48    45    1
    32     8     1    1
    33     8     9    1
    34    45    46    1
    35    45    36    1
    36    66    65    1
    37    65    67    1
    38    65    56    1
    39     1    29    1
    40     1    49    1
    41    36    29   ar
    42    36    34   ar
    43    56    49   ar
    44    56    54   ar
    45    29    30   ar
    46    49    50   ar
    47    35    34    1
    48    55    54    1
    49    34    33   ar
    50    54    53   ar
    51    39    37    1
    52    59    57    1
    53    30    37    1
    54    30    31   ar
    55    50    57    1
    56    50    51   ar
    57    33    31   ar
    58    33    41    1
    59    37    38    1
    60    37    40    1
    61    57    58    1
    62    57    60    1
    63    53    51   ar
    64    53    61    1
    65    31    32    1
    66    44    41    1
    67    51    52    1
    68    43    41    1
    69    41    42    1
    70    62    61    1
    71    61    64    1
    72    61    63    1
