@<TRIPOS>MOLECULE
C35 H32 O5
 72 78 0 0 0
SMALL
GASTEIGER

@<TRIPOS>ATOM
      1 C          -2.4856    9.0261    2.4061 C.ar    1  LIG1        0.1280
      2 C          -1.7685   10.1920    2.1521 C.ar    1  LIG1       -0.0195
      3 H          -1.8422   10.9228    2.7223 H       1  LIG1        0.0654
      4 C          -0.9477   10.2514    1.0451 C.ar    1  LIG1       -0.0583
      5 H          -0.4753   11.0316    0.8616 H       1  LIG1        0.0619
      6 C          -0.8228    9.1730    0.2132 C.ar    1  LIG1       -0.0613
      7 H          -0.2635    9.2205   -0.5285 H       1  LIG1        0.0618
      8 C          -1.5272    8.0102    0.4740 C.ar    1  LIG1       -0.0548
      9 H          -1.4265    7.2748   -0.0859 H       1  LIG1        0.0622
     10 C          -2.3857    7.9303    1.5654 C.ar    1  LIG1       -0.0016
     11 C          -3.1841    6.6869    1.8741 C.3     1  LIG1        0.0044
     12 H          -2.6546    5.9070    1.6076 H       1  LIG1        0.0359
     13 C          -4.5076    6.6695    1.0800 C.3     1  LIG1        0.0179
     14 H          -5.1378    6.0904    1.5366 H       1  LIG1        0.0351
     15 H          -4.8803    7.5647    1.0762 H       1  LIG1        0.0351
     16 C          -4.3648    6.2011   -0.3388 C.2     1  LIG1        0.1638
     17 C          -5.4858    6.4756   -1.2950 C.ar    1  LIG1        0.0174
     18 C          -5.2482    6.3539   -2.6566 C.ar    1  LIG1       -0.0513
     19 H          -4.4149    6.0719   -2.9577 H       1  LIG1        0.0624
     20 C          -6.2399    6.6501   -3.5614 C.ar    1  LIG1       -0.0611
     21 H          -6.0658    6.5916   -4.4736 H       1  LIG1        0.0618
     22 C          -7.4836    7.0306   -3.1294 C.ar    1  LIG1       -0.0617
     23 H          -8.1486    7.2363   -3.7467 H       1  LIG1        0.0618
     24 C          -7.7474    7.1069   -1.7853 C.ar    1  LIG1       -0.0611
     25 H          -8.6039    7.3237   -1.4966 H       1  LIG1        0.0618
     26 C          -6.7524    6.8664   -0.8580 C.ar    1  LIG1       -0.0513
     27 H          -6.9249    6.9635    0.0503 H       1  LIG1        0.0624
     28 C          -2.3810    4.3325    5.6547 C.ar    1  LIG1        0.1278
     29 C          -2.3227    2.9638    5.8784 C.ar    1  LIG1       -0.0195
     30 H          -2.6278    2.6040    6.6807 H       1  LIG1        0.0654
     31 C          -1.8054    2.1414    4.8949 C.ar    1  LIG1       -0.0583
     32 H          -1.7714    1.2228    5.0316 H       1  LIG1        0.0619
     33 C          -1.3433    2.6707    3.7238 C.ar    1  LIG1       -0.0613
     34 H          -0.9887    2.1145    3.0687 H       1  LIG1        0.0618
     35 C          -1.4047    4.0403    3.5130 C.ar    1  LIG1       -0.0547
     36 H          -1.0820    4.3947    2.7164 H       1  LIG1        0.0622
     37 C          -1.9398    4.8914    4.4706 C.ar    1  LIG1        0.0007
     38 C          -2.1370    6.3619    4.2151 C.3     1  LIG1        0.0299
     39 H          -1.3592    6.7135    3.7334 H       1  LIG1        0.0382
     40 C          -3.4146    6.6176    3.3757 C.3     1  LIG1        0.0461
     41 H          -4.0474    5.8903    3.5543 H       1  LIG1        0.0381
     42 C          -3.9761    7.8988    3.9954 C.3     1  LIG1        0.2437
     43 C          -5.4680    8.1068    3.8305 C.ar    1  LIG1        0.0237
     44 C          -5.9734    9.1464    3.0809 C.ar    1  LIG1       -0.0524
     45 H          -5.3947    9.7762    2.7164 H       1  LIG1        0.0622
     46 C          -7.3411    9.2589    2.8662 C.ar    1  LIG1       -0.0613
     47 H          -7.6716    9.9645    2.3582 H       1  LIG1        0.0618
     48 C          -8.2042    8.3398    3.3974 C.ar    1  LIG1       -0.0617
     49 H          -9.1175    8.4063    3.2330 H       1  LIG1        0.0618
     50 C          -7.7161    7.3219    4.1745 C.ar    1  LIG1       -0.0613
     51 H          -8.3024    6.7092    4.5564 H       1  LIG1        0.0618
     52 C          -6.3485    7.2000    4.3942 C.ar    1  LIG1       -0.0524
     53 H          -6.0238    6.5058    4.9221 H       1  LIG1        0.0622
     54 C          -2.3743    7.2069    5.4848 C.3     1  LIG1        0.1353
     55 H          -1.7167    7.9338    5.5113 H       1  LIG1        0.0669
     56 C          -2.2917    6.4132    6.7833 C.3     1  LIG1        0.2367
     57 C          -3.0056    7.0856    7.9350 C.3     1  LIG1        0.0037
     58 H          -3.9299    7.2133    7.7081 H       1  LIG1        0.0294
     59 H          -2.5993    7.9371    8.1107 H       1  LIG1        0.0294
     60 H          -2.9425    6.5329    8.7177 H       1  LIG1        0.0294
     61 C          -0.4749    5.5064    8.0989 C.3     1  LIG1        0.0492
     62 H          -0.9155    4.6421    8.1092 H       1  LIG1        0.0558
     63 H          -0.7062    5.9779    8.9131 H       1  LIG1        0.0558
     64 C           0.9527    5.3282    8.0234 C.3     1  LIG1       -0.0414
     65 H           1.1624    4.7173    7.3128 H       1  LIG1        0.0252
     66 H           1.2757    4.9744    8.8553 H       1  LIG1        0.0252
     67 H           1.3731    6.1738    7.8517 H       1  LIG1        0.0252
     68 O          -3.2742    9.0656    3.5392 O.3     1  LIG1       -0.4562
     69 O          -3.3800    5.5929   -0.7183 O.2     1  LIG1       -0.2920
     70 O          -2.9247    5.1262    6.6418 O.3     1  LIG1       -0.4584
     71 O          -3.6880    7.7706    5.3657 O.3     1  LIG1       -0.3248
     72 O          -0.9032    6.2582    6.9593 O.3     1  LIG1       -0.3377
@<TRIPOS>BOND
     1    21    20    1
     2    23    22    1
     3    20    22   ar
     4    20    18   ar
     5    22    24   ar
     6    19    18    1
     7    18    17   ar
     8    24    25    1
     9    24    26   ar
    10    17    26   ar
    11    17    16    1
    12    26    27    1
    13    69    16    2
    14     7     6    1
    15    16    13    1
    16     9     8    1
    17     6     8   ar
    18     6     4   ar
    19     8    10   ar
    20     5     4    1
    21     4     2   ar
    22    15    13    1
    23    13    14    1
    24    13    11    1
    25    10    11    1
    26    10     1   ar
    27    12    11    1
    28    11    40    1
    29     2     1   ar
    30     2     3    1
    31    47    46    1
    32     1    68    1
    33    45    44    1
    34    36    35    1
    35    46    44   ar
    36    46    48   ar
    37    34    33    1
    38    44    43   ar
    39    49    48    1
    40    40    41    1
    41    40    42    1
    42    40    38    1
    43    48    50   ar
    44    35    33   ar
    45    35    37   ar
    46    68    42    1
    47    33    31   ar
    48    39    38    1
    49    43    42    1
    50    43    52   ar
    51    42    71    1
    52    50    52   ar
    53    50    51    1
    54    38    37    1
    55    38    54    1
    56    52    53    1
    57    37    28   ar
    58    31    32    1
    59    31    29   ar
    60    71    54    1
    61    54    55    1
    62    54    56    1
    63    28    29   ar
    64    28    70    1
    65    29    30    1
    66    70    56    1
    67    56    72    1
    68    56    57    1
    69    72    61    1
    70    65    64    1
    71    58    57    1
    72    67    64    1
    73    57    59    1
    74    57    60    1
    75    64    61    1
    76    64    66    1
    77    61    62    1
    78    61    63    1
