@<TRIPOS>MOLECULE
C15 H10 F2 O
 28 29 0 0 0
SMALL
GASTEIGER

@<TRIPOS>ATOM
      1 F          -0.4960    2.1140   -0.6105 F       1  LIG1       -0.1991
      2 F           1.8616    0.9292   -0.4549 F       1  LIG1       -0.2107
      3 O          -2.0146    2.3791    1.5452 O.2     1  LIG1       -0.2841
      4 C          -0.2520    2.2290    3.1175 C.ar    1  LIG1        0.0247
      5 C          -1.0047    1.7223    4.1719 C.ar    1  LIG1       -0.0503
      6 H          -1.8610    1.3518    3.9946 H       1  LIG1        0.0625
      7 C          -0.5393    1.7457    5.4608 C.ar    1  LIG1       -0.0534
      8 H          -1.0701    1.3702    6.1534 H       1  LIG1        0.0624
      9 C           0.7142    2.3169    5.7818 C.ar    1  LIG1       -0.0178
     10 C           1.4387    2.8631    4.7138 C.ar    1  LIG1       -0.0534
     11 H           2.2711    3.2843    4.8925 H       1  LIG1        0.0624
     12 C           0.9861    2.8104    3.4137 C.ar    1  LIG1       -0.0503
     13 H           1.5178    3.1712    2.7138 H       1  LIG1        0.0625
     14 C           1.2306    2.3205    7.1735 C.ar    1  LIG1       -0.0179
     15 C           0.5092    1.7611    8.2332 C.ar    1  LIG1       -0.0540
     16 H          -0.3373    1.3679    8.0571 H       1  LIG1        0.0624
     17 C           0.9893    1.7633    9.5249 C.ar    1  LIG1       -0.0612
     18 H           0.4686    1.3789   10.2202 H       1  LIG1        0.0618
     19 C           2.2233    2.3191    9.8204 C.ar    1  LIG1       -0.0617
     20 H           2.5592    2.3125   10.7090 H       1  LIG1        0.0618
     21 C           2.9570    2.8858    8.7868 C.ar    1  LIG1       -0.0612
     22 H           3.8025    3.2778    8.9723 H       1  LIG1        0.0618
     23 C           2.4762    2.8880    7.4958 C.ar    1  LIG1       -0.0540
     24 H           2.9984    3.2817    6.8071 H       1  LIG1        0.0624
     25 C          -0.8215    2.1880    1.7480 C.2     1  LIG1        0.2232
     26 C           0.0494    1.8790    0.5959 C.2     1  LIG1        0.1980
     27 C           1.2363    1.2880    0.6577 C.2     1  LIG1        0.1262
     28 H           1.6393    1.1215    1.5018 H       1  LIG1        0.0973
@<TRIPOS>BOND
     1     1    26    1
     2     2    27    1
     3    26    27    2
     4    26    25    1
     5    27    28    1
     6     3    25    2
     7    25     4    1
     8    13    12    1
     9     4    12   ar
    10     4     5   ar
    11    12    10   ar
    12     6     5    1
    13     5     7   ar
    14    10    11    1
    15    10     9   ar
    16     7     9   ar
    17     7     8    1
    18     9    14    1
    19    24    23    1
    20    14    23   ar
    21    14    15   ar
    22    23    21   ar
    23    16    15    1
    24    15    17   ar
    25    21    22    1
    26    21    19   ar
    27    17    19   ar
    28    17    18    1
    29    19    20    1
