@<TRIPOS>MOLECULE
7123308.cif
 28 29 0 0 0
SMALL
GASTEIGER

@<TRIPOS>ATOM
      1 O           3.1195    0.6929    2.7941 O.3     1  LIG1       -0.3901
      2 H           3.1790    0.0294    3.3060 H       1  LIG1        0.2098
      3 O           3.6898    4.7797    1.6596 O.2     1  LIG1       -0.2259
      4 O           3.8246    2.9258    0.4469 O.3     1  LIG1       -0.4480
      5 N           2.0855    3.1387    1.7889 N.am    1  LIG1       -0.2285
      6 C           1.4483   -0.6102    1.6190 C.3     1  LIG1       -0.0371
      7 H           2.0154   -0.7998    0.8432 H       1  LIG1        0.0255
      8 H           0.5103   -0.5815    1.3378 H       1  LIG1        0.0255
      9 H           1.5666   -1.3139    2.2912 H       1  LIG1        0.0255
     10 C           1.8363    0.7231    2.2119 C.3     1  LIG1        0.0746
     11 H           1.1721    0.9581    2.9222 H       1  LIG1        0.0610
     12 C           1.8518    1.8323    1.1876 C.3     1  LIG1        0.0939
     13 H           0.9891    1.8401    0.6811 H       1  LIG1        0.0565
     14 C           1.2246    3.7047    2.7709 C.ar    1  LIG1        0.0399
     15 C          -0.1482    3.5972    2.6213 C.ar    1  LIG1       -0.0402
     16 H          -0.5132    3.1675    1.8562 H       1  LIG1        0.0636
     17 C          -0.9866    4.1193    3.5938 C.ar    1  LIG1       -0.0600
     18 H          -1.9282    4.0299    3.5044 H       1  LIG1        0.0618
     19 C          -0.4583    4.7674    4.6903 C.ar    1  LIG1       -0.0616
     20 H          -1.0363    5.1352    5.3493 H       1  LIG1        0.0618
     21 C           3.2238    3.7132    1.3485 C.2     1  LIG1        0.4077
     22 C           3.0332    1.7604    0.2080 C.3     1  LIG1        0.1154
     23 H           3.5663    0.9422    0.3677 H       1  LIG1        0.0718
     24 H           2.7073    1.7494   -0.7270 H       1  LIG1        0.0718
     25 C           1.7470    4.3395    3.8786 C.ar    1  LIG1       -0.0402
     26 H           2.6887    4.4053    3.9907 H       1  LIG1        0.0636
     27 C           0.8925    4.8805    4.8279 C.ar    1  LIG1       -0.0600
     28 H           1.2521    5.3340    5.5811 H       1  LIG1        0.0618
@<TRIPOS>BOND
     1    24    22    1
     2    22    23    1
     3    22     4    1
     4    22    12    1
     5     4    21    1
     6    13    12    1
     7     7     6    1
     8    12     5    1
     9    12    10    1
    10     8     6    1
    11    21     3    2
    12    21     5   am
    13     6    10    1
    14     6     9    1
    15     5    14    1
    16    16    15    1
    17    10     1    1
    18    10    11    1
    19    15    14   ar
    20    15    17   ar
    21    14    25   ar
    22     1     2    1
    23    18    17    1
    24    17    19   ar
    25    25    26    1
    26    25    27   ar
    27    19    27   ar
    28    19    20    1
    29    27    28    1
