@<TRIPOS>MOLECULE
7123786.cif
 46 49 0 0 0
SMALL
GASTEIGER

@<TRIPOS>ATOM
      1 C          12.2878    4.0894    7.5368 C.ar    1  LIG1        0.0021
      2 C          11.2534    3.7569    8.4041 C.ar    1  LIG1       -0.0547
      3 H          10.8175    2.9151    8.3403 H       1  LIG1        0.0622
      4 C          10.8712    4.6862    9.3686 C.ar    1  LIG1       -0.0613
      5 H          10.1686    4.4727    9.9713 H       1  LIG1        0.0618
      6 C          11.4976    5.9119    9.4615 C.ar    1  LIG1       -0.0583
      7 H          11.2120    6.5291   10.1246 H       1  LIG1        0.0619
      8 C          12.5404    6.2659    8.6057 C.ar    1  LIG1       -0.0196
      9 H          12.9816    7.1048    8.6725 H       1  LIG1        0.0654
     10 C          12.8957    5.3261    7.6529 C.ar    1  LIG1        0.1262
     11 C          14.2595    4.1837    6.2795 C.3     1  LIG1        0.2374
     12 C          15.3039    3.6398    7.2768 C.2     1  LIG1        0.3544
     13 C          10.3364    1.1133    3.1321 C.ar    1  LIG1       -0.0586
     14 H          10.9417    0.4400    3.4198 H       1  LIG1        0.0620
     15 C           9.6494    0.9485    1.9373 C.ar    1  LIG1       -0.0615
     16 H           9.7853    0.1665    1.4157 H       1  LIG1        0.0618
     17 C           8.7687    1.9209    1.5064 C.ar    1  LIG1       -0.0617
     18 H           8.2947    1.8101    0.6907 H       1  LIG1        0.0618
     19 C           8.5826    3.0546    2.2696 C.ar    1  LIG1       -0.0615
     20 H           7.9817    3.7293    1.9760 H       1  LIG1        0.0618
     21 C           9.2730    3.2142    3.4700 C.ar    1  LIG1       -0.0586
     22 H           9.1375    3.9973    3.9900 H       1  LIG1        0.0620
     23 C          10.1539    2.2429    3.9114 C.ar    1  LIG1       -0.0473
     24 C          10.8897    2.4194    5.2187 C.3     1  LIG1       -0.0270
     25 H          11.1752    1.5313    5.5509 H       1  LIG1        0.0313
     26 H          10.2714    2.8079    5.8872 H       1  LIG1        0.0313
     27 C          12.1192    3.3237    5.0905 C.3     1  LIG1       -0.0376
     28 H          11.8253    4.2440    4.8753 H       1  LIG1        0.0276
     29 H          12.6834    3.0018    4.3433 H       1  LIG1        0.0276
     30 C          12.9544    3.3481    6.3801 C.3     1  LIG1        0.0427
     31 H          13.1726    2.4129    6.6592 H       1  LIG1        0.0398
     32 C          15.6779    3.2055    4.4553 C.ar    1  LIG1       -0.0542
     33 H          15.8019    2.4430    5.0081 H       1  LIG1        0.0622
     34 C          16.2705    3.2532    3.1991 C.ar    1  LIG1       -0.0614
     35 H          16.8045    2.5270    2.8991 H       1  LIG1        0.0618
     36 C          16.0876    4.3380    2.3976 C.ar    1  LIG1       -0.0617
     37 H          16.4957    4.3675    1.5402 H       1  LIG1        0.0618
     38 C          15.3150    5.3902    2.8241 C.ar    1  LIG1       -0.0614
     39 H          15.1839    6.1388    2.2540 H       1  LIG1        0.0618
     40 C          14.7181    5.3710    4.0907 C.ar    1  LIG1       -0.0542
     41 H          14.1923    6.1050    4.3861 H       1  LIG1        0.0622
     42 C          14.9047    4.2687    4.9066 C.ar    1  LIG1        0.0072
     43 O          13.9148    5.5188    6.7359 O.3     1  LIG1       -0.4689
     44 O          15.2398    2.5125    7.7388 O.2     1  LIG1       -0.2460
     45 O          16.2478    4.4969    7.5551 O.3     1  LIG1       -0.4776
     46 H          16.8034    4.1429    8.0760 H       1  LIG1        0.2952
@<TRIPOS>BOND
     1    18    17    1
     2    16    15    1
     3    17    15   ar
     4    17    19   ar
     5    37    36    1
     6    15    13   ar
     7    20    19    1
     8    39    38    1
     9    19    21   ar
    10    36    38   ar
    11    36    34   ar
    12    38    40   ar
    13    35    34    1
    14    13    14    1
    15    13    23   ar
    16    34    32   ar
    17    21    23   ar
    18    21    22    1
    19    23    24    1
    20    40    41    1
    21    40    42   ar
    22    29    27    1
    23    32    42   ar
    24    32    33    1
    25    28    27    1
    26    42    11    1
    27    27    24    1
    28    27    30    1
    29    24    25    1
    30    24    26    1
    31    11    30    1
    32    11    43    1
    33    11    12    1
    34    30    31    1
    35    30     1    1
    36    43    10    1
    37    12    45    1
    38    12    44    2
    39     1    10   ar
    40     1     2   ar
    41    45    46    1
    42    10     8   ar
    43     3     2    1
    44     2     4   ar
    45     8     9    1
    46     8     6   ar
    47     4     6   ar
    48     4     5    1
    49     6     7    1
