@<TRIPOS>MOLECULE
7123660.cif
 51 53 0 0 0
SMALL
GASTEIGER

@<TRIPOS>ATOM
      1 O          14.2616   -1.5047    6.6208 O.3     1  LIG1       -0.5061
      2 O          11.7305    5.7862    7.9467 O.3     1  LIG1       -0.5061
      3 N          16.3211    4.3442    8.2787 N.ar    1  LIG1       -0.2592
      4 N          14.0428    0.8967    7.5849 N.2     1  LIG1       -0.2899
      5 N          12.6536    3.8571    6.4977 N.2     1  LIG1       -0.2899
      6 C          16.0915    2.3295    5.9478 C.3     1  LIG1       -0.0507
      7 H          16.3216    2.8641    5.1599 H       1  LIG1        0.0240
      8 H          15.7804    1.4445    5.6617 H       1  LIG1        0.0240
      9 H          16.8816    2.2302    6.5176 H       1  LIG1        0.0240
     10 C          14.9730    3.0361    6.7391 C.3     1  LIG1        0.0488
     11 C          15.4945    4.3955    7.2233 C.ar    1  LIG1        0.0506
     12 C          15.1829    5.6006    6.6015 C.ar    1  LIG1       -0.0397
     13 H          14.5923    5.6180    5.8572 H       1  LIG1        0.0636
     14 C          15.7421    6.7798    7.0815 C.ar    1  LIG1       -0.0586
     15 H          15.5407    7.6100    6.6670 H       1  LIG1        0.0619
     16 C          16.5953    6.7309    8.1665 C.ar    1  LIG1       -0.0436
     17 H          16.9939    7.5199    8.5148 H       1  LIG1        0.0633
     18 C          16.8478    5.4949    8.7279 C.ar    1  LIG1        0.0279
     19 H          17.4299    5.4569    9.4781 H       1  LIG1        0.0829
     20 C          14.5759    2.2036    7.9802 C.3     1  LIG1        0.0522
     21 H          15.3691    2.0749    8.5584 H       1  LIG1        0.0518
     22 H          13.8928    2.6947    8.5013 H       1  LIG1        0.0518
     23 C          12.8028    0.6658    7.7855 C.2     1  LIG1        0.0328
     24 H          12.2766    1.3248    8.2227 H       1  LIG1        0.0832
     25 C          12.1701   -0.5779    7.3635 C.ar    1  LIG1        0.0340
     26 C          12.9243   -1.6213    6.7850 C.ar    1  LIG1        0.1254
     27 C          12.2913   -2.7922    6.3682 C.ar    1  LIG1       -0.0195
     28 H          12.7976   -3.4922    5.9738 H       1  LIG1        0.0654
     29 C          10.9201   -2.9319    6.5302 C.ar    1  LIG1       -0.0583
     30 H          10.4928   -3.7303    6.2432 H       1  LIG1        0.0619
     31 C          10.1607   -1.9157    7.1100 C.ar    1  LIG1       -0.0609
     32 H           9.2224   -2.0204    7.2200 H       1  LIG1        0.0618
     33 C          10.7873   -0.7503    7.5237 C.ar    1  LIG1       -0.0497
     34 H          10.2722   -0.0581    7.9215 H       1  LIG1        0.0625
     35 C          13.7550    3.1935    5.8094 C.3     1  LIG1        0.0522
     36 H          14.0143    3.7244    5.0147 H       1  LIG1        0.0518
     37 H          13.4599    2.3012    5.4989 H       1  LIG1        0.0518
     38 C          11.4679    3.3900    6.3850 C.2     1  LIG1        0.0328
     39 H          11.3259    2.5904    5.8916 H       1  LIG1        0.0832
     40 C          10.3273    4.0648    7.0018 C.ar    1  LIG1        0.0340
     41 C          10.5055    5.2510    7.7377 C.ar    1  LIG1        0.1254
     42 C           9.3901    5.9092    8.2639 C.ar    1  LIG1       -0.0195
     43 H           9.5031    6.7142    8.7548 H       1  LIG1        0.0654
     44 C           8.1224    5.3915    8.0700 C.ar    1  LIG1       -0.0583
     45 H           7.3709    5.8396    8.4409 H       1  LIG1        0.0619
     46 C           7.9318    4.2201    7.3391 C.ar    1  LIG1       -0.0609
     47 H           7.0569    3.8702    7.2107 H       1  LIG1        0.0618
     48 C           9.0341    3.5711    6.8012 C.ar    1  LIG1       -0.0497
     49 H           8.9092    2.7812    6.2894 H       1  LIG1        0.0625
     50 H          14.4474   -0.7063    6.8306 H       1  LIG1        0.2922
     51 H          12.2777    5.2377    7.5523 H       1  LIG1        0.2922
@<TRIPOS>BOND
     1    36    35    1
     2     7     6    1
     3    37    35    1
     4     8     6    1
     5    35     5    1
     6    35    10    1
     7    13    12    1
     8    39    38    1
     9     6     9    1
    10     6    10    1
    11    28    27    1
    12    30    29    1
    13    49    48    1
    14    27    29   ar
    15    27    26   ar
    16    38     5    2
    17    38    40    1
    18    29    31   ar
    19    12    14   ar
    20    12    11   ar
    21     1    26    1
    22     1    50    1
    23    15    14    1
    24    10    11    1
    25    10    20    1
    26    26    25   ar
    27    48    40   ar
    28    48    46   ar
    29    40    41   ar
    30    14    16   ar
    31    31    32    1
    32    31    33   ar
    33    47    46    1
    34    11     3   ar
    35    46    44   ar
    36    25    33   ar
    37    25    23    1
    38    33    34    1
    39    51     2    1
    40     4    23    2
    41     4    20    1
    42    41     2    1
    43    41    42   ar
    44    23    24    1
    45    20    22    1
    46    20    21    1
    47    44    42   ar
    48    44    45    1
    49    16    17    1
    50    16    18   ar
    51    42    43    1
    52     3    18   ar
    53    18    19    1
