@<TRIPOS>MOLECULE
7124472.cif
 54 54 0 0 0
SMALL
GASTEIGER

@<TRIPOS>ATOM
      1 C          17.7396    3.0252    1.5503 C.3     1  LIG1        0.0000
      2 C          16.8469    5.2563    1.6587 C.3     1  LIG1        0.0000
      3 H          16.9141    5.3611    2.6209 H       1  LIG1        0.0000
      4 H          16.0716    5.7548    1.3548 H       1  LIG1        0.0000
      5 C          15.6095    3.4783    0.3742 C.3     1  LIG1        0.0000
      6 H          15.6504    2.5088    0.2401 H       1  LIG1        0.0000
      7 C          15.8471    4.1406   -0.9765 C.3     1  LIG1        0.0000
      8 H          15.7542    5.0924   -0.8871 H       1  LIG1        0.0000
      9 H          15.2043    3.8150   -1.6104 H       1  LIG1        0.0000
     10 H          16.7315    3.9328   -1.2839 H       1  LIG1        0.0000
     11 C          14.2356    3.8081    0.9420 C.3     1  LIG1        0.0000
     12 H          14.1335    3.3868    1.7987 H       1  LIG1        0.0000
     13 H          13.5566    3.4859    0.3444 H       1  LIG1        0.0000
     14 H          14.1501    4.7590    1.0403 H       1  LIG1        0.0000
     15 C          18.6390    0.8936    0.8585 C.3     1  LIG1        0.0000
     16 H          19.4084    1.4786    0.6923 H       1  LIG1        0.0000
     17 C          18.1040    0.4348   -0.4927 C.3     1  LIG1        0.0000
     18 H          17.3478   -0.1408   -0.3587 H       1  LIG1        0.0000
     19 H          18.7900   -0.0431   -0.9634 H       1  LIG1        0.0000
     20 H          17.8355    1.1998   -1.0075 H       1  LIG1        0.0000
     21 C          19.1276   -0.2937    1.6784 C.3     1  LIG1        0.0000
     22 H          19.3545   -0.0000    2.5631 H       1  LIG1        0.0000
     23 H          19.9023   -0.6753    1.2589 H       1  LIG1        0.0000
     24 H          18.4331   -0.9541    1.7296 H       1  LIG1        0.0000
     25 C          19.9865    3.0281    2.6114 C.3     1  LIG1        0.0000
     26 H          19.6968    2.1151    2.8217 H       1  LIG1        0.0000
     27 C          20.0911    3.8035    3.9168 C.3     1  LIG1        0.0000
     28 H          20.3837    4.6987    3.7345 H       1  LIG1        0.0000
     29 H          20.7240    3.3710    4.4959 H       1  LIG1        0.0000
     30 H          19.2320    3.8293    4.3434 H       1  LIG1        0.0000
     31 C          21.3501    2.9487    1.9286 C.3     1  LIG1        0.0000
     32 H          21.2698    2.4499    1.1124 H       1  LIG1        0.0000
     33 H          21.9753    2.5117    2.5119 H       1  LIG1        0.0000
     34 H          21.6620    3.8351    1.7332 H       1  LIG1        0.0000
     35 C          17.9567    7.1377    0.4433 C.3     1  LIG1        0.0000
     36 H          17.0739    7.2190    0.0250 H       1  LIG1        0.0000
     37 C          18.0494    8.1929    1.5342 C.3     1  LIG1        0.0000
     38 H          17.3644    8.0380    2.1884 H       1  LIG1        0.0000
     39 H          17.9309    9.0640    1.1475 H       1  LIG1        0.0000
     40 H          18.9104    8.1429    1.9548 H       1  LIG1        0.0000
     41 C          18.9992    7.3628   -0.6345 C.3     1  LIG1        0.0000
     42 H          19.8732    7.3612   -0.2389 H       1  LIG1        0.0000
     43 H          18.8419    8.2090   -1.0599 H       1  LIG1        0.0000
     44 H          18.9415    6.6615   -1.2869 H       1  LIG1        0.0000
     45 B          19.1729    4.9927    1.1910 B       1  LIG1        0.0000
     46 H          20.0226    5.2935    0.9646 H       1  LIG1        0.0000
     47 B          16.2891    0.9689    2.0704 B       1  LIG1        0.0000
     48 N          16.6834    3.8440    1.3280 N.3     1  LIG1        0.0000
     49 N          18.9521    3.6532    1.7481 N.3     1  LIG1        0.0000
     50 N          18.0548    5.7835    1.0200 N.3     1  LIG1        0.0000
     51 N          17.5937    1.7014    1.5401 N.3     1  LIG1        0.0000
     52 H          15.6940    0.5791    1.2214 H       1  LIG1        0.0000
     53 H          15.7230    1.6869    2.6692 H       1  LIG1        0.0000
     54 H          16.5925    0.1365    2.7347 H       1  LIG1        0.0000
@<TRIPOS>BOND
     1     9     7    1
     2    44    41    1
     3    10     7    1
     4    43    41    1
     5    20    17    1
     6     7     8    1
     7     7     5    1
     8    19    17    1
     9    41    42    1
    10    41    35    1
    11    17    18    1
    12    17    15    1
    13    36    35    1
    14     6     5    1
    15    13    11    1
    16     5    11    1
    17     5    48    1
    18    35    50    1
    19    35    37    1
    20    16    15    1
    21    15    51    1
    22    15    21    1
    23    11    14    1
    24    11    12    1
    25    46    45    1
    26    50    45    1
    27    50     2    1
    28    32    31    1
    29    39    37    1
    30    45    49    1
    31    52    47    1
    32    23    21    1
    33    48     1    1
    34    48     2    1
    35     4     2    1
    36    37    40    1
    37    37    38    1
    38    51     1    1
    39    51    47    1
    40     1    49    1
    41     2     3    1
    42    21    24    1
    43    21    22    1
    44    34    31    1
    45    49    25    1
    46    31    33    1
    47    31    25    1
    48    47    53    1
    49    47    54    1
    50    25    26    1
    51    25    27    1
    52    28    27    1
    53    27    30    1
    54    27    29    1
