@<TRIPOS>MOLECULE
(Z)-2-(benzyloxy)-N,N-dimethyl-3-phenylpenta-2,4-dienamide
 44 45 0 0 0
SMALL
GASTEIGER

@<TRIPOS>ATOM
      1 C          -1.2859    1.6607    5.2660 C.ar    1  LIG1       -0.0104
      2 C          -1.6009    2.3513    6.4129 C.ar    1  LIG1       -0.0554
      3 H          -1.1234    3.1965    6.6023 H       1  LIG1        0.0621
      4 C          -2.5751    1.8828    7.2607 C.ar    1  LIG1       -0.0614
      5 H          -2.7952    2.4100    8.0762 H       1  LIG1        0.0618
      6 C          -3.2443    0.7240    6.9702 C.ar    1  LIG1       -0.0617
      7 H          -3.8942    0.4050    7.6255 H       1  LIG1        0.0618
      8 C          -2.9445    0.0270    5.8385 C.ar    1  LIG1       -0.0614
      9 H          -3.4399   -0.8067    5.6156 H       1  LIG1        0.0618
     10 C          -1.9649    0.4962    4.9804 C.ar    1  LIG1       -0.0554
     11 H          -1.7475   -0.0034    4.1904 H       1  LIG1        0.0621
     12 C          -0.1820    2.1316    4.3804 C.3     1  LIG1        0.1149
     13 H           0.6575    2.1231    4.8847 H       1  LIG1        0.0748
     14 H          -0.0806    1.6067    3.5326 H       1  LIG1        0.0748
     15 C           0.4517    4.1514    3.2485 C.2     1  LIG1        0.1902
     16 C           1.8114    3.5148    3.0642 C.2     1  LIG1        0.2815
     17 C           2.4584    4.4802    5.2295 C.3     1  LIG1        0.0032
     18 H           2.5812    3.9155    5.9871 H       1  LIG1        0.0428
     19 H           3.1327    5.2386    5.2989 H       1  LIG1        0.0428
     20 H           1.5604    4.8471    5.2624 H       1  LIG1        0.0428
     21 C           4.0285    3.0882    3.9181 C.3     1  LIG1        0.0032
     22 H           4.2034    2.5923    4.6716 H       1  LIG1        0.0428
     23 H           4.7155    3.7163    3.8676 H       1  LIG1        0.0428
     24 H           4.0421    2.5045    3.1428 H       1  LIG1        0.0428
     25 C           0.1133    5.3193    2.6907 C.2     1  LIG1        0.0285
     26 C          -1.2596    5.8745    2.8900 C.ar    1  LIG1       -0.0142
     27 C          -2.1954    5.8594    1.8711 C.ar    1  LIG1       -0.0539
     28 H          -1.9526    5.4546    0.9745 H       1  LIG1        0.0624
     29 C          -3.4632    6.3930    2.0660 C.ar    1  LIG1       -0.0612
     30 H          -4.0811    6.3998    1.3339 H       1  LIG1        0.0618
     31 C          -3.8002    6.9496    3.2689 C.ar    1  LIG1       -0.0617
     32 H          -4.7231    7.3246    3.3560 H       1  LIG1        0.0618
     33 C          -2.8845    6.9709    4.2842 C.ar    1  LIG1       -0.0612
     34 H          -3.1124    7.3719    5.1344 H       1  LIG1        0.0618
     35 C          -1.6194    6.4332    4.1039 C.ar    1  LIG1       -0.0539
     36 H          -0.9566    6.4301    4.8421 H       1  LIG1        0.0624
     37 C           1.0833    6.0788    1.9137 C.2     1  LIG1       -0.0575
     38 H           1.9411    5.6605    1.8637 H       1  LIG1        0.0619
     39 C           0.8837    7.2601    1.3619 C.2     1  LIG1       -0.0980
     40 H           0.0082    7.7465    1.4496 H       1  LIG1        0.0535
     41 H           1.6036    7.6925    0.8283 H       1  LIG1        0.0535
     42 O          -0.4708    3.4794    3.9923 O.2     1  LIG1       -0.4816
     43 O           2.0350    2.8542    2.0580 O.2     1  LIG1       -0.2666
     44 N           2.7123    3.7079    4.0339 N.am    1  LIG1       -0.3011
@<TRIPOS>BOND
     1    41    39    1
     2    28    27    1
     3    30    29    1
     4    39    40    1
     5    39    37    2
     6    38    37    1
     7    27    29   ar
     8    27    26   ar
     9    37    25    1
    10    43    16    2
    11    29    31   ar
    12    25    26    1
    13    25    15    2
    14    26    35   ar
    15    16    15    1
    16    16    44   am
    17    24    21    1
    18    15    42    1
    19    31    32    1
    20    31    33   ar
    21    14    12    1
    22    23    21    1
    23    21    44    1
    24    21    22    1
    25    42    12    1
    26    44    17    1
    27    35    33   ar
    28    35    36    1
    29    11    10    1
    30    33    34    1
    31    12    13    1
    32    12     1    1
    33    10     1   ar
    34    10     8   ar
    35    17    20    1
    36    17    19    1
    37    17    18    1
    38     1     2   ar
    39     9     8    1
    40     8     6   ar
    41     2     3    1
    42     2     4   ar
    43     6     4   ar
    44     6     7    1
    45     4     5    1
