@<TRIPOS>MOLECULE
Isoniazid-D-tartaric acid salt
 66 64 0 0 0
SMALL
GASTEIGER

@<TRIPOS>ATOM
      1 C           7.6460    3.6121   14.6944 C.3     1  LIG1        0.1109
      2 C           8.0221    4.5549   13.7380 C.2     1  LIG1       -0.0499
      3 H           8.0118    4.3340   12.8143 H       1  LIG1        0.0598
      4 C           8.4093    5.8129   14.1530 C.2     1  LIG1       -0.0094
      5 H           8.6711    6.4641   13.5125 H       1  LIG1        0.0778
      6 C           8.0905    5.2430   16.3978 C.2     1  LIG1       -0.0094
      7 H           8.1340    5.4942   17.3124 H       1  LIG1        0.0778
      8 C           7.6884    3.9698   16.0421 C.2     1  LIG1       -0.0499
      9 H           7.4431    3.3421   16.7124 H       1  LIG1        0.0598
     10 C           7.2140    2.2009   14.3881 C.2     1  LIG1        0.2625
     11 H           4.9162    9.3522   12.4693 H       2  LIG2        0.1405
     12 H           5.0732    9.5644   13.3586 H       2  LIG2        0.1405
     13 C           4.4112    5.9281   14.5008 C.ar    2  LIG2        0.0408
     14 C           3.9604    5.6174   15.7773 C.ar    2  LIG2       -0.0314
     15 H           3.9403    6.2856   16.4526 H       2  LIG2        0.0640
     16 C           3.5520    4.3624   16.0540 C.ar    2  LIG2        0.0283
     17 H           3.2796    4.1486   16.9396 H       2  LIG2        0.0830
     18 C           3.9534    3.6833   13.8427 C.ar    2  LIG2        0.0283
     19 H           3.9431    3.0056   13.1772 H       2  LIG2        0.0830
     20 C           4.4033    4.9399   13.5305 C.ar    2  LIG2       -0.0314
     21 H           4.7091    5.1313   12.6509 H       2  LIG2        0.0640
     22 C           4.7599    7.3317   14.3545 C.2     2  LIG2        0.2575
     23 C           2.3560    3.6196    9.9695 C.2     3  LIG3        0.3368
     24 C           1.9178    2.1691    9.9656 C.3     3  LIG3        0.1880
     25 H           0.9424    2.1979   10.0585 H       3  LIG3        0.0743
     26 C           2.5154    1.4097   11.1512 C.3     3  LIG3        0.1922
     27 H           2.1989    1.7734   11.9555 H       3  LIG3        0.0744
     28 C           1.9940   -0.0333   11.1196 C.2     3  LIG3        0.3871
     29 C           1.9735    7.4621   11.1592 C.2     4  LIG4        0.3871
     30 C           2.4165    8.9384   11.0920 C.3     4  LIG4        0.1922
     31 H           2.4031    9.3068   11.9358 H       4  LIG4        0.0744
     32 C           1.5228    9.6812   10.0940 C.3     4  LIG4        0.1880
     33 H           0.5654    9.7312   10.3944 H       4  LIG4        0.0743
     34 C           2.0269   11.1136    9.9181 C.2     4  LIG4        0.3368
     35 H           8.6072    7.0180   15.6904 H       1  LIG1        0.1510
     36 H           6.8167    2.6677   12.4693 H       1  LIG1        0.2001
     37 H           5.5444    0.7730   12.7657 H       1  LIG1        0.2203
     38 H           2.5052    5.3809   11.1651 H       3  LIG3        0.2951
     39 H           6.9580    0.4396   11.8962 H       1  LIG1        0.2203
     40 H           3.9188    8.6095    9.9399 H       4  LIG4        0.2106
     41 H           0.6911    8.8520    8.8728 H       4  LIG4        0.2106
     42 H           3.1413    1.6067    8.8728 H       3  LIG3        0.2106
     43 H           4.2329    1.3339   10.4142 H       3  LIG3        0.2106
     44 N           8.4148    6.1115   15.4473 N.pl3   1  LIG1       -0.3269
     45 N           6.8308    2.0053   13.1287 N.am    1  LIG1       -0.2865
     46 N           6.3957    0.7109   12.7420 N.4     1  LIG1        0.3412
     47 N           3.5198    3.3968   15.1035 N.ar    2  LIG2       -0.2632
     48 N           5.3654    7.6894   13.1511 N.am    2  LIG2       -0.2496
     49 N           5.6764    8.9703   12.9633 N.3     2  LIG2       -0.2541
     50 O           7.2046    1.3505   15.2614 O.2     1  LIG1       -0.2701
     51 O           4.5384    8.2776   15.2201 O.2     2  LIG2       -0.2689
     52 O           2.8319    4.1532    8.9902 O.2     3  LIG3       -0.2480
     53 O           2.1589    4.2184   11.1070 O.3     3  LIG3       -0.4788
     54 O           2.2405    1.5370    8.7321 O.3     3  LIG3       -0.3780
     55 O           3.9212    1.5021   11.1686 O.3     3  LIG3       -0.3778
     56 O           0.7594   -0.1864   11.1866 O.co2   3  LIG3       -0.2433
     57 O           2.8288   -0.9686   11.0202 O.co2   3  LIG3       -0.2433
     58 O           2.8869    6.5905   11.1651 O.co2   4  LIG4       -0.2433
     59 O           0.7618    7.2302   11.2161 O.co2   4  LIG4       -0.2433
     60 O           3.7861    9.1127   10.7780 O.3     4  LIG4       -0.3778
     61 O           1.5204    9.0082    8.8506 O.3     4  LIG4       -0.3780
     62 O           2.3364   11.5865    8.8506 O.2     4  LIG4       -0.2480
     63 O           2.0395   11.7593   11.0560 O.3     4  LIG4       -0.4788
     64 H           5.4816    7.0634   12.3903 H       2  LIG2        0.1690
     65 H           6.4554    0.0152   13.1807 H       1  LIG1        0.2203
     66 H           2.2853   12.6869   10.8687 H       4  LIG4        0.2951
@<TRIPOS>BOND
     1    54    42    1
     2    54    24    1
     3    62    34    2
     4    61    41    1
     5    61    32    1
     6    52    23    2
     7    34    32    1
     8    34    63    1
     9    40    60    1
    10    24    23    1
    11    24    25    1
    12    24    26    1
    13    23    53    1
    14    32    33    1
    15    32    30    1
    16    43    55    1
    17    60    30    1
    18    66    63    1
    19    57    28   ar
    20    30    29    1
    21    30    31    1
    22    53    38    1
    23    28    26    1
    24    28    56   ar
    25    26    55    1
    26    26    27    1
    27    29    58   ar
    28    29    59   ar
    29    39    46    1
    30    64    48    1
    31    11    49    1
    32    36    45    1
    33    21    20    1
    34    46    37    1
    35    46    45    1
    36    46    65    1
    37     3     2    1
    38    49    48    1
    39    49    12    1
    40    45    10   am
    41    48    22   am
    42    19    18    1
    43     5     4    1
    44    20    18   ar
    45    20    13   ar
    46     2     4    2
    47     2     1    1
    48    18    47   ar
    49     4    44    1
    50    22    13    1
    51    22    51    2
    52    10     1    1
    53    10    50    2
    54    13    14   ar
    55     1     8    1
    56    47    16   ar
    57    44    35    1
    58    44     6    1
    59    14    16   ar
    60    14    15    1
    61     8     6    2
    62     8     9    1
    63    16    17    1
    64     6     7    1
