@<TRIPOS>MOLECULE
7124438.cif
 65 72 0 0 0
SMALL
GASTEIGER

@<TRIPOS>ATOM
      1 O           0.3902    8.9920   13.0488 O.2     1  LIG1       -0.2834
      2 O          -1.2990    7.2694   11.7174 O.2     1  LIG1       -0.4705
      3 O           0.0359    3.8371   14.5451 O.2     1  LIG1       -0.2868
      4 C           1.0385    7.3288   14.6253 C.ar    1  LIG1        0.0362
      5 C           1.8297    8.2049   15.3663 C.ar    1  LIG1       -0.0501
      6 H           1.9005    9.1169   15.1093 H       1  LIG1        0.0625
      7 C           2.5144    7.7419   16.4820 C.ar    1  LIG1       -0.0610
      8 H           3.0550    8.3363   16.9883 H       1  LIG1        0.0618
      9 C           2.4087    6.4100   16.8576 C.ar    1  LIG1       -0.0610
     10 H           2.8790    6.0971   17.6220 H       1  LIG1        0.0618
     11 C           1.6196    5.5307   16.1246 C.ar    1  LIG1       -0.0502
     12 H           1.5504    4.6212   16.3892 H       1  LIG1        0.0625
     13 C           0.9305    5.9840   15.0033 C.ar    1  LIG1        0.0330
     14 C           0.1011    5.0097   14.2177 C.2     1  LIG1        0.1948
     15 C          -0.6212    5.5442   13.0661 C.2     1  LIG1        0.0647
     16 C          -0.5402    6.8465   12.7434 C.2     1  LIG1        0.1776
     17 C           0.3103    7.8452   13.4365 C.2     1  LIG1        0.2285
     18 C          -2.0024    6.0874   11.1958 C.3     1  LIG1        0.1792
     19 C          -1.2303    5.4014   10.0969 C.2     1  LIG1        0.0139
     20 C          -0.9331    4.3095   10.8369 C.2     1  LIG1       -0.0128
     21 C          -1.5777    4.8402   12.1266 C.3     1  LIG1        0.1018
     22 C          -3.4521    6.4199   11.0098 C.ar    1  LIG1        0.0017
     23 C          -3.9941    7.6068   11.4886 C.ar    1  LIG1       -0.0544
     24 H          -3.4373    8.2362   11.9314 H       1  LIG1        0.0622
     25 C          -5.3459    7.8782   11.3224 C.ar    1  LIG1       -0.0614
     26 H          -5.7093    8.6905   11.6547 H       1  LIG1        0.0618
     27 C          -6.1664    6.9691   10.6752 C.ar    1  LIG1       -0.0617
     28 H          -7.0908    7.1564   10.5603 H       1  LIG1        0.0618
     29 C          -5.6300    5.7848   10.1956 C.ar    1  LIG1       -0.0614
     30 H          -6.1907    5.1566    9.7552 H       1  LIG1        0.0618
     31 C          -4.2803    5.5107   10.3535 C.ar    1  LIG1       -0.0544
     32 H          -3.9189    4.7006   10.0131 H       1  LIG1        0.0622
     33 C          -0.8944    5.9575    8.7857 C.ar    1  LIG1       -0.0174
     34 C          -1.4647    7.1753    8.4070 C.ar    1  LIG1       -0.0542
     35 H          -2.1103    7.5853    8.9706 H       1  LIG1        0.0624
     36 C          -1.0996    7.7926    7.2194 C.ar    1  LIG1       -0.0612
     37 H          -1.4936    8.6224    6.9768 H       1  LIG1        0.0618
     38 C          -0.1651    7.2048    6.3901 C.ar    1  LIG1       -0.0617
     39 H           0.0920    7.6336    5.5820 H       1  LIG1        0.0618
     40 C           0.3975    5.9845    6.7400 C.ar    1  LIG1       -0.0612
     41 H           1.0323    5.5740    6.1638 H       1  LIG1        0.0618
     42 C           0.0381    5.3640    7.9230 C.ar    1  LIG1       -0.0542
     43 H           0.4269    4.5286    8.1529 H       1  LIG1        0.0624
     44 C          -0.2890    3.0155   10.5953 C.ar    1  LIG1       -0.0201
     45 C           0.4238    2.3862   11.6169 C.ar    1  LIG1       -0.0543
     46 H           0.5285    2.8189   12.4566 H       1  LIG1        0.0624
     47 C           0.9805    1.1325   11.4143 C.ar    1  LIG1       -0.0612
     48 H           1.4690    0.7133   12.1138 H       1  LIG1        0.0618
     49 C           0.8277    0.4904   10.2011 C.ar    1  LIG1       -0.0617
     50 H           1.2142   -0.3670   10.0665 H       1  LIG1        0.0618
     51 C           0.1114    1.0954    9.1802 C.ar    1  LIG1       -0.0612
     52 H           0.0058    0.6523    8.3463 H       1  LIG1        0.0618
     53 C          -0.4523    2.3493    9.3767 C.ar    1  LIG1       -0.0543
     54 H          -0.9517    2.7570    8.6797 H       1  LIG1        0.0624
     55 C          -2.6509    4.0192   12.7920 C.ar    1  LIG1       -0.0278
     56 C          -3.2221    4.4503   13.9872 C.ar    1  LIG1       -0.0572
     57 H          -2.9150    5.2536   14.3907 H       1  LIG1        0.0621
     58 C          -4.2327    3.7213   14.5948 C.ar    1  LIG1       -0.0615
     59 H          -4.6139    4.0258   15.4096 H       1  LIG1        0.0618
     60 C          -4.6867    2.5496   14.0131 C.ar    1  LIG1       -0.0617
     61 H          -5.3800    2.0482   14.4268 H       1  LIG1        0.0618
     62 C          -4.1262    2.1133   12.8296 C.ar    1  LIG1       -0.0615
     63 H          -4.4348    1.3086   12.4314 H       1  LIG1        0.0618
     64 C          -3.1143    2.8420   12.2171 C.ar    1  LIG1       -0.0572
     65 H          -2.7370    2.5337   11.4015 H       1  LIG1        0.0621
@<TRIPOS>BOND
     1    39    38    1
     2    41    40    1
     3    38    40   ar
     4    38    36   ar
     5    40    42   ar
     6    37    36    1
     7    36    34   ar
     8    42    43    1
     9    42    33   ar
    10    52    51    1
    11    34    33   ar
    12    34    35    1
    13    54    53    1
    14    33    19    1
    15    51    53   ar
    16    51    49   ar
    17    53    44   ar
    18    30    29    1
    19    32    31    1
    20    50    49    1
    21    19    20    2
    22    19    18    1
    23    29    31   ar
    24    29    27   ar
    25    49    47   ar
    26    31    22   ar
    27    28    27    1
    28    44    20    1
    29    44    45   ar
    30    27    25   ar
    31    20    21    1
    32    22    18    1
    33    22    23   ar
    34    18     2    1
    35    18    21    1
    36    25    23   ar
    37    25    26    1
    38    65    64    1
    39    47    45   ar
    40    47    48    1
    41    23    24    1
    42    45    46    1
    43     2    16    1
    44    21    55    1
    45    21    15    1
    46    64    55   ar
    47    64    62   ar
    48    63    62    1
    49    16    15    2
    50    16    17    1
    51    55    56   ar
    52    62    60   ar
    53     1    17    2
    54    15    14    1
    55    17     4    1
    56    56    57    1
    57    56    58   ar
    58    60    61    1
    59    60    58   ar
    60    14     3    2
    61    14    13    1
    62    58    59    1
    63     4    13   ar
    64     4     5   ar
    65    13    11   ar
    66     6     5    1
    67     5     7   ar
    68    11    12    1
    69    11     9   ar
    70     7     9   ar
    71     7     8    1
    72     9    10    1
