@<TRIPOS>MOLECULE
7124594.cif
 43 44 0 0 0
SMALL
GASTEIGER

@<TRIPOS>ATOM
      1 F          -1.3793    4.9865    7.3710 F       1  LIG1        0.0000
      2 F          -0.0158    4.5448    5.5803 F       1  LIG1        0.0000
      3 F           0.5317    6.2000    7.0450 F       1  LIG1        0.0000
      4 N          -1.0443    2.9044    9.0442 N.pl3   1  LIG1        1.0000
      5 C           0.8637    3.8489    7.8004 C.ar    1  LIG1        0.0000
      6 C           0.4112    2.9109    8.7335 C.ar    1  LIG1        0.0000
      7 C           2.2468    3.8398    7.5496 C.ar    1  LIG1        0.0000
      8 H           2.6003    4.4592    6.9219 H       1  LIG1        0.0000
      9 C          -1.8486    1.6928    8.4629 C.3     1  LIG1        0.0000
     10 C          -1.4258    3.4229   10.4736 C.3     1  LIG1        0.0000
     11 C          -2.9303    3.6906   10.4253 C.3     1  LIG1        0.0000
     12 H          -3.2335    3.9661   11.3264 H       1  LIG1        0.0000
     13 H          -3.0994    4.4455    9.8069 H       1  LIG1        0.0000
     14 C           3.1136    2.9660    8.1794 C.ar    1  LIG1        0.0000
     15 H           4.0429    2.9906    7.9822 H       1  LIG1        0.0000
     16 C          -3.7548    2.4955    9.9756 C.3     1  LIG1        0.0000
     17 H          -4.7151    2.7341    9.9713 H       1  LIG1        0.0000
     18 H          -3.6255    1.7434   10.6065 H       1  LIG1        0.0000
     19 C           1.2644    2.0205    9.3768 C.ar    1  LIG1        0.0000
     20 H           0.9199    1.3930   10.0013 H       1  LIG1        0.0000
     21 C          -0.6787    4.7398   10.6701 C.3     1  LIG1        0.0000
     22 H          -1.0515    5.2141   11.4425 H       1  LIG1        0.0000
     23 H          -0.7768    5.2942    9.8682 H       1  LIG1        0.0000
     24 H           0.2719    4.5561   10.8256 H       1  LIG1        0.0000
     25 C          -1.0676    2.4822   11.6166 C.3     1  LIG1        0.0000
     26 H          -0.1122    2.2693   11.5769 H       1  LIG1        0.0000
     27 H          -1.5899    1.6564   11.5364 H       1  LIG1        0.0000
     28 H          -1.2710    2.9150   12.4716 H       1  LIG1        0.0000
     29 C          -3.3228    2.0746    8.5756 C.3     1  LIG1        0.0000
     30 H          -3.5072    2.8189    7.9496 H       1  LIG1        0.0000
     31 H          -3.8732    1.3022    8.2927 H       1  LIG1        0.0000
     32 C          -1.4708    1.5927    6.9850 C.3     1  LIG1        0.0000
     33 H          -0.5299    1.3289    6.9049 H       1  LIG1        0.0000
     34 H          -1.6037    2.4632    6.5540 H       1  LIG1        0.0000
     35 H          -2.0361    0.9221    6.5475 H       1  LIG1        0.0000
     36 C           2.6239    2.0565    9.0970 C.ar    1  LIG1        0.0000
     37 H           3.2162    1.4571    9.5356 H       1  LIG1        0.0000
     38 C          -1.5448    0.3646    9.1420 C.3     1  LIG1        0.0000
     39 H          -1.8368    0.4007   10.0769 H       1  LIG1        0.0000
     40 H          -0.5801    0.1931    9.1078 H       1  LIG1        0.0000
     41 H          -2.0209   -0.3557    8.6787 H       1  LIG1        0.0000
     42 B          -0.0100    4.9192    6.9361 B       1  LIG1        0.0000
     43 H          -1.3403    3.6104    8.5300 H       1  LIG1        0.0000
@<TRIPOS>BOND
     1     2    42    1
     2    35    32    1
     3    34    32    1
     4    33    32    1
     5     8     7    1
     6    42     3    1
     7    42     1    1
     8    42     5    1
     9    32     9    1
    10     7     5   ar
    11     7    14   ar
    12     5     6   ar
    13    30    29    1
    14    15    14    1
    15    14    36   ar
    16    31    29    1
    17     9    29    1
    18     9     4    1
    19     9    38    1
    20    43     4    1
    21    29    16    1
    22    41    38    1
    23     6     4    1
    24     6    19   ar
    25     4    10    1
    26    36    19   ar
    27    36    37    1
    28    40    38    1
    29    38    39    1
    30    19    20    1
    31    13    11    1
    32    23    21    1
    33    17    16    1
    34    16    11    1
    35    16    18    1
    36    11    10    1
    37    11    12    1
    38    10    21    1
    39    10    25    1
    40    21    24    1
    41    21    22    1
    42    27    25    1
    43    26    25    1
    44    25    28    1
