@<TRIPOS>MOLECULE
C25 H30 N2 O3 S
 61 63 0 0 0
SMALL
GASTEIGER

@<TRIPOS>ATOM
      1 S           7.2486    4.6281   19.9762 S.O2    1  LIG1        0.0987
      2 O           4.9822    5.8683   15.1046 O.2     1  LIG1       -0.2963
      3 O           7.3599    3.2638   20.4003 O.2     1  LIG1       -0.1463
      4 O           8.4288    5.4509   20.0342 O.2     1  LIG1       -0.1463
      5 N           8.0808    3.1401   15.0617 N.3     1  LIG1       -0.3036
      6 N           6.5294    4.7413   18.5218 N.2     1  LIG1       -0.1367
      7 C           6.8609    3.6473   15.0625 C.3     1  LIG1        0.0874
      8 C           6.3343    4.2869   16.2082 C.3     1  LIG1        0.1122
      9 C           7.0219    4.1498   17.4553 C.2     1  LIG1        0.0586
     10 C           8.2708    3.2992   17.4684 C.3     1  LIG1        0.0009
     11 H           8.0247    2.3573   17.6490 H       1  LIG1        0.0338
     12 H           8.8670    3.6032   18.1971 H       1  LIG1        0.0338
     13 C           9.0088    3.3811   16.1504 C.3     1  LIG1        0.0020
     14 H           9.4176    4.2774   16.0502 H       1  LIG1        0.0428
     15 H           9.7323    2.7069   16.1299 H       1  LIG1        0.0428
     16 C           6.0814    3.4323   13.8137 C.ar    1  LIG1       -0.0239
     17 C           6.7046    3.5938   12.5775 C.ar    1  LIG1       -0.0567
     18 H           7.6122    3.8726   12.5379 H       1  LIG1        0.0621
     19 C           6.0048    3.3480   11.4024 C.ar    1  LIG1       -0.0614
     20 H           6.4335    3.4607   10.5617 H       1  LIG1        0.0618
     21 C           4.6905    2.9409   11.4569 C.ar    1  LIG1       -0.0617
     22 H           4.2090    2.7833   10.6527 H       1  LIG1        0.0618
     23 C           4.0691    2.7605   12.6784 C.ar    1  LIG1       -0.0614
     24 H           3.1672    2.4636   12.7123 H       1  LIG1        0.0618
     25 C           4.7571    3.0102   13.8508 C.ar    1  LIG1       -0.0567
     26 H           4.3229    2.8936   14.6866 H       1  LIG1        0.0621
     27 C           5.1077    5.1193   16.0641 C.2     1  LIG1        0.1485
     28 C           4.0153    5.0248   17.0887 C.3     1  LIG1        0.0069
     29 H           4.3891    5.3005   17.9638 H       1  LIG1        0.0342
     30 H           3.7504    4.0742   17.1692 H       1  LIG1        0.0342
     31 C           2.7769    5.8345   16.8346 C.3     1  LIG1       -0.0463
     32 H           2.3013    5.4698   16.0464 H       1  LIG1        0.0269
     33 H           3.0295    6.7701   16.6343 H       1  LIG1        0.0269
     34 C           1.8520    5.8085   18.0406 C.3     1  LIG1       -0.0527
     35 H           1.6148    4.8657   18.2274 H       1  LIG1        0.0265
     36 H           2.3549    6.1456   18.8229 H       1  LIG1        0.0265
     37 C           0.5731    6.6032   17.9238 C.3     1  LIG1       -0.0533
     38 H           0.0421    6.2527   17.1654 H       1  LIG1        0.0265
     39 H           0.7957    7.5467   17.7267 H       1  LIG1        0.0265
     40 C          -0.2733    6.5464   19.1891 C.3     1  LIG1       -0.0559
     41 H          -0.5254    5.6037   19.3577 H       1  LIG1        0.0263
     42 H           0.2790    6.8489   19.9532 H       1  LIG1        0.0263
     43 C          -1.5212    7.3742   19.1440 C.3     1  LIG1       -0.0653
     44 H          -1.2861    8.3106   18.9746 H       1  LIG1        0.0230
     45 H          -1.9892    7.3065   20.0026 H       1  LIG1        0.0230
     46 H          -2.1033    7.0489   18.4265 H       1  LIG1        0.0230
     47 C           6.0009    5.3918   20.9800 C.ar    1  LIG1        0.1125
     48 C           4.7040    4.9327   20.9233 C.ar    1  LIG1       -0.0346
     49 H           4.4689    4.2301   20.3288 H       1  LIG1        0.0637
     50 C           3.7475    5.5029   21.7394 C.ar    1  LIG1       -0.0570
     51 H           2.8519    5.1879   21.6942 H       1  LIG1        0.0621
     52 C           4.0629    6.5244   22.6243 C.ar    1  LIG1       -0.0503
     53 C           5.3890    6.9434   22.6704 C.ar    1  LIG1       -0.0570
     54 H           5.6348    7.6286   23.2816 H       1  LIG1        0.0621
     55 C           6.3556    6.3944   21.8568 C.ar    1  LIG1       -0.0346
     56 H           7.2538    6.7032   21.8991 H       1  LIG1        0.0637
     57 C           3.0156    7.1442   23.5045 C.3     1  LIG1       -0.0397
     58 H           2.1259    6.9150   23.1640 H       1  LIG1        0.0278
     59 H           3.1236    8.1177   23.5054 H       1  LIG1        0.0278
     60 H           3.1147    6.8040   24.4176 H       1  LIG1        0.0278
     61 H           8.3648    2.7093   14.3775 H       1  LIG1        0.1229
@<TRIPOS>BOND
     1    20    19    1
     2    22    21    1
     3    19    21   ar
     4    19    17   ar
     5    21    23   ar
     6    18    17    1
     7    17    16   ar
     8    23    24    1
     9    23    25   ar
    10    16    25   ar
    11    16     7    1
    12    25    26    1
    13    61     5    1
    14     5     7    1
    15     5    13    1
    16     7     8    1
    17     2    27    2
    18    32    31    1
    19    14    13    1
    20    27     8    1
    21    27    28    1
    22    15    13    1
    23    13    10    1
    24     8     9    1
    25    33    31    1
    26    31    28    1
    27    31    34    1
    28    28    30    1
    29    28    29    1
    30    38    37    1
    31     9    10    1
    32     9     6    2
    33    10    11    1
    34    10    12    1
    35    39    37    1
    36    37    34    1
    37    37    40    1
    38    34    35    1
    39    34    36    1
    40    46    43    1
    41     6     1    1
    42    44    43    1
    43    43    40    1
    44    43    45    1
    45    40    41    1
    46    40    42    1
    47     1     4    2
    48     1     3    2
    49     1    47    1
    50    49    48    1
    51    48    47   ar
    52    48    50   ar
    53    47    55   ar
    54    51    50    1
    55    50    52   ar
    56    55    56    1
    57    55    53   ar
    58    52    53   ar
    59    52    57    1
    60    53    54    1
    61    58    57    1
    62    57    59    1
    63    57    60    1
