@<TRIPOS>MOLECULE
C16 H11 N2 O P
 31 34 0 0 0
SMALL
GASTEIGER

@<TRIPOS>ATOM
      1 P           8.8909    7.0176    6.8232 P.3     1  LIG1        0.1756
      2 O          10.0063    7.1261    5.8561 O.2     1  LIG1       -0.3063
      3 N          10.0098    4.6420   10.0167 N.ar    1  LIG1       -0.2625
      4 N           7.4880   10.7893    7.7725 N.ar    1  LIG1       -0.2625
      5 C           9.2490    6.2737    8.4352 C.ar    1  LIG1        0.0458
      6 C           8.9198    7.1531    9.4779 C.ar    1  LIG1       -0.0032
      7 C           8.3838    8.4502    9.0064 C.ar    1  LIG1       -0.0032
      8 C           8.3248    8.5476    7.6064 C.ar    1  LIG1        0.0458
      9 C           7.4099    6.2267    6.1824 C.ar    1  LIG1        0.0201
     10 C           9.7969    5.0358    8.7564 C.ar    1  LIG1        0.0392
     11 C           9.6884    5.4996   10.9853 C.ar    1  LIG1        0.0282
     12 C           9.1497    6.7578   10.7877 C.ar    1  LIG1       -0.0351
     13 C           7.8848    9.7396    7.0359 C.ar    1  LIG1        0.0392
     14 C           7.5384   10.6626    9.1060 C.ar    1  LIG1        0.0282
     15 C           7.9816    9.5258    9.7717 C.ar    1  LIG1       -0.0351
     16 C           6.9834    4.9745    6.6046 C.ar    1  LIG1       -0.0507
     17 C           5.7988    4.4447    6.1156 C.ar    1  LIG1       -0.0611
     18 C           5.0435    5.1484    5.2142 C.ar    1  LIG1       -0.0617
     19 C           5.4598    6.3869    4.7769 C.ar    1  LIG1       -0.0611
     20 C           6.6398    6.9203    5.2467 C.ar    1  LIG1       -0.0507
     21 H          10.0254    4.4573    8.0649 H       1  LIG1        0.0837
     22 H           9.8389    5.2307   11.8626 H       1  LIG1        0.0830
     23 H           8.9494    7.3167   11.5040 H       1  LIG1        0.0639
     24 H           7.8648    9.8109    6.1088 H       1  LIG1        0.0837
     25 H           7.2578   11.3846    9.6211 H       1  LIG1        0.0830
     26 H           8.0056    9.4910   10.7008 H       1  LIG1        0.0639
     27 H           7.4919    4.4912    7.2152 H       1  LIG1        0.0625
     28 H           5.5153    3.6064    6.4018 H       1  LIG1        0.0618
     29 H           4.2464    4.7881    4.8963 H       1  LIG1        0.0618
     30 H           4.9450    6.8619    4.1649 H       1  LIG1        0.0618
     31 H           6.9255    7.7497    4.9379 H       1  LIG1        0.0625
@<TRIPOS>BOND
     1    30    19    1
     2    19    18   ar
     3    19    20   ar
     4    29    18    1
     5    31    20    1
     6    18    17   ar
     7    20     9   ar
     8     2     1    2
     9    24    13    1
    10    17    28    1
    11    17    16   ar
    12     9    16   ar
    13     9     1    1
    14    16    27    1
    15     1     8    1
    16     1     5    1
    17    13     8   ar
    18    13     4   ar
    19     8     7   ar
    20     4    14   ar
    21    21    10    1
    22     5    10   ar
    23     5     6   ar
    24    10     3   ar
    25     7     6    1
    26     7    15   ar
    27    14    25    1
    28    14    15   ar
    29     6    12   ar
    30    15    26    1
    31     3    11   ar
    32    12    11   ar
    33    12    23    1
    34    11    22    1
