@<TRIPOS>MOLECULE
Nitrendipine
 46 47 0 0 0
SMALL
GASTEIGER

@<TRIPOS>ATOM
      1 O           6.0674    9.7649    5.5811 O.2     1  LIG1       -0.2452
      2 O           7.5755    9.5064    3.9545 O.3     1  LIG1       -0.4616
      3 O           2.5334   13.2311    8.6713 O.2     1  LIG1       -0.1261
      4 O           3.9586   14.5274    9.6630 O.2     1  LIG1       -0.1261
      5 O           1.9895   12.0148    4.7170 O.3     1  LIG1       -0.4646
      6 N           5.6264   12.5867    1.8331 N.pl3   1  LIG1       -0.3207
      7 H           6.0064   13.0349    1.2053 H       1  LIG1        0.1516
      8 N           3.5956   13.8487    8.7045 N.pl3   1  LIG1        0.0564
      9 O           1.5103   13.1754    2.8720 O.2     1  LIG1       -0.2452
     10 C           6.5108   10.0985    4.4927 C.2     1  LIG1        0.3375
     11 C           5.9035   11.1698    3.6926 C.2     1  LIG1        0.0652
     12 C           6.3783   11.6492    2.5156 C.2     1  LIG1        0.0157
     13 C           4.4717   13.7813    7.5328 C.ar    1  LIG1        0.1265
     14 C           4.9690   12.7758    5.4146 C.ar    1  LIG1       -0.0329
     15 C           4.6461   11.7587    4.3157 C.3     1  LIG1        0.0507
     16 H           4.1399   11.0252    4.7236 H       1  LIG1        0.0451
     17 C           4.1942   12.8261    6.5622 C.ar    1  LIG1       -0.0274
     18 H           3.4942   12.2257    6.6819 H       1  LIG1        0.0643
     19 C           5.5228   14.6814    7.4131 C.ar    1  LIG1       -0.0315
     20 H           5.7114   15.2922    8.0890 H       1  LIG1        0.0640
     21 C           3.7628   12.4043    3.2570 C.2     1  LIG1        0.0651
     22 C           6.2746   14.6399    6.2659 C.ar    1  LIG1       -0.0593
     23 H           6.9733   15.2431    6.1525 H       1  LIG1        0.0618
     24 C           6.0043   13.7055    5.2668 C.ar    1  LIG1       -0.0575
     25 H           6.5189   13.7001    4.4922 H       1  LIG1        0.0621
     26 C           7.6454   11.2927    1.7986 C.3     1  LIG1       -0.0260
     27 H           7.4827   10.5519    1.2102 H       1  LIG1        0.0290
     28 H           8.3184   11.0506    2.4392 H       1  LIG1        0.0290
     29 H           7.9471   12.0472    1.2874 H       1  LIG1        0.0290
     30 C           4.2950   12.8414    2.1071 C.2     1  LIG1        0.0157
     31 C           2.3328   12.5760    3.5541 C.2     1  LIG1        0.3373
     32 C           3.5824   13.5854    1.0038 C.3     1  LIG1       -0.0260
     33 H           3.3044   14.4462    1.3265 H       1  LIG1        0.0290
     34 H           2.8120   13.0844    0.7260 H       1  LIG1        0.0290
     35 H           4.1762   13.6995    0.2587 H       1  LIG1        0.0290
     36 C           8.1870    8.4732    4.7840 C.3     1  LIG1        0.0900
     37 H           8.3923    8.8299    5.6632 H       1  LIG1        0.0695
     38 H           7.5774    7.7267    4.8914 H       1  LIG1        0.0695
     39 C           0.6287   12.2294    5.1961 C.3     1  LIG1        0.0820
     40 H           0.0194   11.6968    4.6796 H       1  LIG1        0.0661
     41 H           0.3994   13.1574    5.1037 H       1  LIG1        0.0661
     42 H           0.5708   11.9763    6.1203 H       1  LIG1        0.0661
     43 C           9.3785    8.0430    4.1432 C.3     1  LIG1       -0.0306
     44 H           9.1717    7.7374    3.2568 H       1  LIG1        0.0262
     45 H           9.7702    7.3244    4.6456 H       1  LIG1        0.0262
     46 H           9.9977    8.7741    4.0938 H       1  LIG1        0.0262
@<TRIPOS>BOND
     1    35    32    1
     2    34    32    1
     3    32    33    1
     4    32    30    1
     5     7     6    1
     6    27    26    1
     7    29    26    1
     8    26    28    1
     9    26    12    1
    10     6    30    1
    11     6    12    1
    12    30    21    2
    13    12    11    2
    14     9    31    2
    15    44    43    1
    16    21    31    1
    17    21    15    1
    18    31     5    1
    19    11    15    1
    20    11    10    1
    21     2    10    1
    22     2    36    1
    23    46    43    1
    24    43    45    1
    25    43    36    1
    26    15    16    1
    27    15    14    1
    28    25    24    1
    29    10     1    2
    30    40    39    1
    31     5    39    1
    32    36    38    1
    33    36    37    1
    34    41    39    1
    35    39    42    1
    36    24    14   ar
    37    24    22   ar
    38    14    17   ar
    39    23    22    1
    40    22    19   ar
    41    17    18    1
    42    17    13   ar
    43    19    13   ar
    44    19    20    1
    45    13     8    1
    46     3     8    2
    47     8     4    2
