@<TRIPOS>MOLECULE
C10 H12 N2 O2
 26 26 0 0 0
SMALL
GASTEIGER

@<TRIPOS>ATOM
      1 O           5.5370    2.3431    4.1291 O.2     1  LIG1       -0.2687
      2 O           5.6710    5.5216    1.4968 O.2     1  LIG1       -0.2744
      3 N           3.8984    3.8470    3.9730 N.am    1  LIG1       -0.2280
      4 C           4.5309    2.8425    4.5923 C.2     1  LIG1        0.2603
      5 C           3.9090    2.3669    5.8618 C.ar    1  LIG1        0.0382
      6 N           4.3216    4.2520    2.6959 N.am    1  LIG1       -0.2236
      7 C           3.0404    3.1274    6.6092 C.ar    1  LIG1       -0.0496
      8 H           2.8390    3.9957    6.3424 H       1  LIG1        0.0625
      9 C           2.4664    2.6146    7.7496 C.ar    1  LIG1       -0.0610
     10 H           1.8755    3.1311    8.2495 H       1  LIG1        0.0618
     11 C           4.2373    1.0924    6.2875 C.ar    1  LIG1       -0.0496
     12 H           4.8494    0.5809    5.8088 H       1  LIG1        0.0625
     13 C           5.2336    5.2082    2.5948 C.2     1  LIG1        0.2283
     14 C           2.7707    1.3327    8.1464 C.ar    1  LIG1       -0.0617
     15 H           2.3759    0.9760    8.9092 H       1  LIG1        0.0618
     16 C           3.8673    3.4755    1.5719 C.3     1  LIG1        0.0225
     17 H           4.0155    3.9684    0.7619 H       1  LIG1        0.0446
     18 H           2.9295    3.2921    1.6682 H       1  LIG1        0.0446
     19 H           4.3526    2.6481    1.5372 H       1  LIG1        0.0446
     20 C           3.6491    0.5871    7.4260 C.ar    1  LIG1       -0.0610
     21 H           3.8558   -0.2750    7.7053 H       1  LIG1        0.0618
     22 C           5.6843    5.8820    3.8681 C.3     1  LIG1        0.0138
     23 H           6.4082    6.4827    3.6735 H       1  LIG1        0.0323
     24 H           5.9797    5.2169    4.4951 H       1  LIG1        0.0323
     25 H           4.9523    6.3762    4.2456 H       1  LIG1        0.0323
     26 H           2.9632    4.0378    4.1416 H       1  LIG1        0.1733
@<TRIPOS>BOND
     1    17    16    1
     2     2    13    2
     3    19    16    1
     4    16    18    1
     5    16     6    1
     6    13     6   am
     7    13    22    1
     8     6     3    1
     9    23    22    1
    10    22    25    1
    11    22    24    1
    12     3    26    1
    13     3     4   am
    14     1     4    2
    15     4     5    1
    16    12    11    1
    17     5    11   ar
    18     5     7   ar
    19    11    20   ar
    20     8     7    1
    21     7     9   ar
    22    20    21    1
    23    20    14   ar
    24     9    14   ar
    25     9    10    1
    26    14    15    1
