@<TRIPOS>MOLECULE
C21 H20 O2
 43 46 0 0 0
SMALL
GASTEIGER

@<TRIPOS>ATOM
      1 O           4.9868    4.0055   12.2755 O.3     1  LIG1       -0.4951
      2 O           5.5248    7.4381    4.2294 O.3     1  LIG1       -0.3719
      3 C           6.0473    6.8687    6.9334 C.ar    1  LIG1       -0.0313
      4 C           5.6028    5.5538    8.9478 C.ar    1  LIG1       -0.0064
      5 C           4.9239    4.5885    8.1464 C.ar    1  LIG1       -0.0167
      6 C           6.1852    6.6863    8.3043 C.ar    1  LIG1       -0.0065
      7 C           5.0661    4.2533   10.9271 C.ar    1  LIG1        0.1207
      8 C           5.3040    5.9373    6.1531 C.ar    1  LIG1       -0.0147
      9 C           6.9758    7.6655    9.1172 C.ar    1  LIG1       -0.0170
     10 C           4.4050    3.4258    8.7727 C.ar    1  LIG1       -0.0505
     11 H           4.0105    2.7668    8.2487 H       1  LIG1        0.0625
     12 C           4.4698    3.2514   10.1188 C.ar    1  LIG1       -0.0194
     13 H           4.1253    2.4800   10.5077 H       1  LIG1        0.0654
     14 C           5.6437    5.3573   10.3600 C.ar    1  LIG1       -0.0117
     15 H           6.0668    5.9843   10.9004 H       1  LIG1        0.0660
     16 C           4.7873    4.8179    6.7626 C.ar    1  LIG1       -0.0481
     17 H           4.3335    4.1919    6.2453 H       1  LIG1        0.0627
     18 C           8.2076    7.2843    9.6422 C.ar    1  LIG1       -0.0540
     19 H           8.5262    6.4256    9.4812 H       1  LIG1        0.0624
     20 C           6.5259    8.9637    9.3687 C.ar    1  LIG1       -0.0540
     21 H           5.7080    9.2420    9.0242 H       1  LIG1        0.0624
     22 C           5.1511    6.1225    4.6467 C.3     1  LIG1        0.0811
     23 H           5.7342    5.4777    4.1948 H       1  LIG1        0.0643
     24 C           8.5067    9.4380   10.6474 C.ar    1  LIG1       -0.0617
     25 H           9.0115   10.0270   11.1610 H       1  LIG1        0.0618
     26 C           6.6977    8.0450    6.2350 C.3     1  LIG1       -0.0032
     27 H           6.1734    8.8448    6.3959 H       1  LIG1        0.0336
     28 H           7.5837    8.1880    6.6030 H       1  LIG1        0.0336
     29 C           8.9696    8.1633   10.4025 C.ar    1  LIG1       -0.0612
     30 H           9.7903    7.8913   10.7454 H       1  LIG1        0.0618
     31 C           7.2846    9.8419   10.1255 C.ar    1  LIG1       -0.0612
     32 H           6.9745   10.7044   10.2845 H       1  LIG1        0.0618
     33 C           6.8058    7.8065    4.7449 C.3     1  LIG1        0.0524
     34 H           7.1172    8.6134    4.3052 H       1  LIG1        0.0563
     35 H           7.4461    7.0994    4.5708 H       1  LIG1        0.0563
     36 C           5.4464    5.0429   13.1474 C.3     1  LIG1        0.0788
     37 H           5.0062    5.8666   12.9246 H       1  LIG1        0.0660
     38 H           6.3950    5.1497   13.0456 H       1  LIG1        0.0660
     39 H           5.2464    4.8090   14.0566 H       1  LIG1        0.0660
     40 C           3.7389    5.9237    4.1439 C.3     1  LIG1       -0.0345
     41 H           3.1504    6.5355    4.5922 H       1  LIG1        0.0258
     42 H           3.4598    5.0226    4.3224 H       1  LIG1        0.0258
     43 H           3.7099    6.0863    3.1983 H       1  LIG1        0.0258
@<TRIPOS>BOND
     1    43    40    1
     2    40    42    1
     3    40    41    1
     4    40    22    1
     5    23    22    1
     6     2    22    1
     7     2    33    1
     8    34    33    1
     9    35    33    1
    10    22     8    1
    11    33    26    1
    12     8    16   ar
    13     8     3   ar
    14    26    27    1
    15    26    28    1
    16    26     3    1
    17    17    16    1
    18    16     5   ar
    19     3     6   ar
    20     5    10   ar
    21     5     4   ar
    22    11    10    1
    23     6     4   ar
    24     6     9    1
    25    10    12   ar
    26     4    14   ar
    27    21    20    1
    28     9    20   ar
    29     9    18   ar
    30    20    31   ar
    31    19    18    1
    32    18    29   ar
    33    12    13    1
    34    12     7   ar
    35    31    32    1
    36    31    24   ar
    37    14    15    1
    38    14     7   ar
    39    29    24   ar
    40    29    30    1
    41    24    25    1
    42     7     1    1
    43     1    36    1
    44    37    36    1
    45    38    36    1
    46    36    39    1
