@<TRIPOS>MOLECULE
C28 H16 N2 O4
 25 27 0 0 0
SMALL
GASTEIGER

@<TRIPOS>ATOM
      1 O           6.2499   11.0583    7.6081 O.2     1  LIG1       -0.2906
      2 O          10.2778   10.7121    5.1354 O.2     1  LIG1       -0.2906
      3 N           5.8328    9.2020    2.5984 N.ar    1  LIG1       -0.2632
      4 C           7.9650   11.1619    5.8590 C.3     1  LIG1        0.1445
      5 C           7.3414   10.7150    7.2113 C.2     1  LIG1        0.1835
      6 C           8.3222    9.8910    7.9444 C.ar    1  LIG1        0.0293
      7 C           8.1944    9.3145    9.2023 C.ar    1  LIG1       -0.0505
      8 H           7.3911    9.3929    9.7034 H       1  LIG1        0.0625
      9 C           9.2917    8.6177    9.6970 C.ar    1  LIG1       -0.0611
     10 H           9.2402    8.2155   10.5560 H       1  LIG1        0.0618
     11 C          10.4690    8.4986    8.9529 C.ar    1  LIG1       -0.0611
     12 H          11.1919    7.9921    9.3043 H       1  LIG1        0.0618
     13 C          10.6045    9.1052    7.7105 C.ar    1  LIG1       -0.0505
     14 H          11.4135    9.0430    7.2162 H       1  LIG1        0.0625
     15 C           9.5077    9.8081    7.2182 C.ar    1  LIG1        0.0293
     16 C           9.4041   10.5817    5.9605 C.2     1  LIG1        0.1835
     17 C           5.2052    9.6581    3.6902 C.ar    1  LIG1        0.0278
     18 H           4.2660    9.5274    3.7485 H       1  LIG1        0.0829
     19 C           5.8346   10.3089    4.7422 C.ar    1  LIG1       -0.0390
     20 H           5.3338   10.6034    5.4938 H       1  LIG1        0.0636
     21 C           7.2119   10.5256    4.6827 C.ar    1  LIG1       -0.0217
     22 C           7.8740   10.0730    3.5438 C.ar    1  LIG1       -0.0390
     23 H           8.8094   10.2080    3.4468 H       1  LIG1        0.0636
     24 C           7.1503    9.4205    2.5491 C.ar    1  LIG1        0.0278
     25 H           7.6236    9.1108    1.7859 H       1  LIG1        0.0829
@<TRIPOS>BOND
     1    25    24    1
     2    24     3   ar
     3    24    22   ar
     4     3    17   ar
     5    23    22    1
     6    22    21   ar
     7    17    18    1
     8    17    19   ar
     9    21    19   ar
    10    21     4    1
    11    19    20    1
    12     2    16    2
    13     4    16    1
    14     4     5    1
    15    16    15    1
    16     5     1    2
    17     5     6    1
    18    14    13    1
    19    15    13   ar
    20    15     6   ar
    21    13    11   ar
    22     6     7   ar
    23    11    12    1
    24    11     9   ar
    25     7     9   ar
    26     7     8    1
    27     9    10    1
