@<TRIPOS>MOLECULE
griseofulvin
 82 86 0 0 0
SMALL
GASTEIGER

@<TRIPOS>ATOM
      1 CL          4.0482    5.3222   16.8667 Cl      1  LIG1       -0.0759
      2 CL          4.4027    8.4278    6.4452 Cl      2  LIG2       -0.0759
      3 O           6.0936    3.3451   15.8360 O.3     1  LIG1       -0.4674
      4 O           8.8964    6.3686   13.6617 O.3     1  LIG1       -0.4942
      5 O           6.2398    6.5497    8.0376 O.3     2  LIG2       -0.4674
      6 O           4.8835    7.9168   15.9038 O.3     1  LIG1       -0.4934
      7 O           8.5887    5.8005    7.0768 O.2     2  LIG2       -0.4947
      8 O           9.1347    3.3085   13.9947 O.2     1  LIG1       -0.2870
      9 O           5.6531    2.3655   13.4361 O.2     1  LIG1       -0.4947
     10 O           8.8521    6.8011   10.4346 O.2     2  LIG2       -0.2870
     11 O           8.5149    9.7934   10.4434 O.3     2  LIG2       -0.4942
     12 O           5.0361   11.0665    7.3217 O.3     2  LIG2       -0.4934
     13 O           8.1881   -1.4436   14.6315 O.2     1  LIG1       -0.2926
     14 O           8.4106    2.0541    9.9686 O.2     2  LIG2       -0.2926
     15 C           7.7582    6.2020   14.3601 C.ar    1  LIG1        0.1378
     16 C           6.9012    7.2389   14.7294 C.ar    1  LIG1        0.0242
     17 H           7.0938    8.1127   14.4757 H       1  LIG1        0.0692
     18 C           8.5973    3.8602    8.4918 C.2     2  LIG2        0.0228
     19 H           9.2273    3.4256    7.9635 H       2  LIG2        0.0687
     20 C           8.1616    5.0731    8.1218 C.2     2  LIG2        0.1521
     21 C           7.5618    9.5694    9.5208 C.ar    2  LIG2        0.1378
     22 C           6.2761    4.6461   15.4849 C.ar    1  LIG1        0.1585
     23 C           6.3627    7.8871    8.2507 C.ar    2  LIG2        0.1585
     24 C           5.7451    6.9656   15.4858 C.ar    1  LIG1        0.1454
     25 C           7.4318    4.8840   14.7373 C.ar    1  LIG1        0.1068
     26 C           8.0862    3.6046   14.5396 C.2     1  LIG1        0.2213
     27 C           7.1653    5.8672    8.9313 C.3     2  LIG2        0.2313
     28 C           5.4241    5.6566   15.8739 C.ar    1  LIG1        0.1250
     29 C           9.2721    7.7219   13.3345 C.3     1  LIG1        0.0788
     30 H           8.6120    8.1054   12.7524 H       1  LIG1        0.0660
     31 H          10.1249    7.7195   12.8935 H       1  LIG1        0.0660
     32 H           9.3296    8.2416   14.1395 H       1  LIG1        0.0660
     33 C           6.5200    1.6697   14.1787 C.2     1  LIG1        0.1521
     34 C           7.9327    6.9995    9.6619 C.2     2  LIG2        0.2213
     35 C           5.8328   10.1846    7.9524 C.ar    2  LIG2        0.1454
     36 C           7.1589    2.5577   15.2271 C.3     1  LIG1        0.2313
     37 C           7.8414    1.7528   16.3332 C.3     1  LIG1        0.0177
     38 H           7.1352    1.3433   16.8754 H       1  LIG1        0.0350
     39 C           7.3328    8.2256    9.1955 C.ar    2  LIG2        0.1068
     40 C           6.8065   10.5586    8.8900 C.ar    2  LIG2        0.0242
     41 H           6.9472   11.4561    9.0891 H       2  LIG2        0.0692
     42 C           8.6725    0.6206   15.7369 C.3     1  LIG1        0.0170
     43 H           9.4263    1.0020   15.2603 H       1  LIG1        0.0349
     44 H           9.0244    0.0762   16.4585 H       1  LIG1        0.0349
     45 C           6.8369    0.3662   14.0226 C.2     1  LIG1        0.0228
     46 H           6.3641   -0.1426   13.4041 H       1  LIG1        0.0687
     47 C           7.8946   -0.2637   14.7926 C.2     1  LIG1        0.1598
     48 C           5.6019    8.8436    7.6122 C.ar    2  LIG2        0.1250
     49 C           8.6864    2.6216   17.2646 C.3     1  LIG1       -0.0575
     50 H           9.4856    2.8960   16.8089 H       1  LIG1        0.0234
     51 H           8.9213    2.1174   18.0471 H       1  LIG1        0.0234
     52 H           8.1831    3.3973   17.5229 H       1  LIG1        0.0234
     53 C           6.3396    4.9776    9.8703 C.3     2  LIG2        0.0177
     54 H           5.7473    4.4311    9.3127 H       2  LIG2        0.0350
     55 C           5.4589    5.7797   10.8263 C.3     2  LIG2       -0.0575
     56 H           6.0130    6.2531   11.4510 H       2  LIG2        0.0234
     57 H           4.8775    5.1824   11.3029 H       2  LIG2        0.0234
     58 H           4.9322    6.4071   10.3259 H       2  LIG2        0.0234
     59 C           8.1104    3.2031    9.7006 C.2     2  LIG2        0.1598
     60 C           5.0110    1.6658   12.3491 C.3     1  LIG1        0.0785
     61 H           5.6749    1.3685   11.7231 H       1  LIG1        0.0660
     62 H           4.3961    2.2565   11.9073 H       1  LIG1        0.0660
     63 H           4.5337    0.9076   12.6942 H       1  LIG1        0.0660
     64 C           9.6242    5.2295    6.2607 C.3     2  LIG2        0.0785
     65 H           9.8292    5.8280    5.5386 H       2  LIG2        0.0660
     66 H           9.3246    4.3897    5.9049 H       2  LIG2        0.0660
     67 H          10.4106    5.0892    6.7932 H       2  LIG2        0.0660
     68 C           7.2576    4.0279   10.6305 C.3     2  LIG2        0.0170
     69 H           7.8317    4.5419   11.2192 H       2  LIG2        0.0349
     70 H           6.7197    3.4362   11.1800 H       2  LIG2        0.0349
     71 C           8.7968   11.1587   10.7787 C.3     2  LIG2        0.0788
     72 H           9.0882   11.6275    9.9935 H       2  LIG2        0.0660
     73 H           9.4871   11.1888   11.4447 H       2  LIG2        0.0660
     74 H           8.0020   11.5740   11.1227 H       2  LIG2        0.0660
     75 C           5.1448    9.2860   15.5383 C.3     1  LIG1        0.0789
     76 H           5.1745    9.3618   14.5817 H       1  LIG1        0.0660
     77 H           5.9881    9.5601   15.9070 H       1  LIG1        0.0660
     78 H           4.4473    9.8481   15.8826 H       1  LIG1        0.0660
     79 C           5.1820   12.4595    7.6249 C.3     2  LIG2        0.0789
     80 H           4.6176   12.9750    7.0438 H       2  LIG2        0.0660
     81 H           6.0970   12.7214    7.4964 H       2  LIG2        0.0660
     82 H           4.9298   12.6171    8.5378 H       2  LIG2        0.0660
@<TRIPOS>BOND
     1    65    64    1
     2    66    64    1
     3    64    67    1
     4    64     7    1
     5     2    48    1
     6    80    79    1
     7     7    20    1
     8    12    79    1
     9    12    35    1
    10    81    79    1
    11    48    35   ar
    12    48    23   ar
    13    79    82    1
    14    35    40   ar
    15    19    18    1
    16     5    23    1
    17     5    27    1
    18    20    18    2
    19    20    27    1
    20    23    39   ar
    21    18    59    1
    22    40    41    1
    23    40    21   ar
    24    27    34    1
    25    27    53    1
    26    39    21   ar
    27    39    34    1
    28    54    53    1
    29    21    11    1
    30    34    10    2
    31    59    14    2
    32    59    68    1
    33    53    68    1
    34    53    55    1
    35    72    71    1
    36    58    55    1
    37    11    71    1
    38    68    70    1
    39    68    69    1
    40    71    74    1
    41    71    73    1
    42    55    57    1
    43    55    56    1
    44    61    60    1
    45    62    60    1
    46    60    63    1
    47    60     9    1
    48    30    29    1
    49    31    29    1
    50    29     4    1
    51    29    32    1
    52    46    45    1
    53     9    33    1
    54     4    15    1
    55     8    26    2
    56    45    33    2
    57    45    47    1
    58    33    36    1
    59    15    16   ar
    60    15    25   ar
    61    17    16    1
    62    26    25    1
    63    26    36    1
    64    76    75    1
    65    13    47    2
    66    16    24   ar
    67    25    22   ar
    68    47    42    1
    69    36     3    1
    70    36    37    1
    71    43    42    1
    72    22     3    1
    73    22    28   ar
    74    24    28   ar
    75    24     6    1
    76    75    78    1
    77    75     6    1
    78    75    77    1
    79    42    37    1
    80    42    44    1
    81    28     1    1
    82    37    38    1
    83    37    49    1
    84    50    49    1
    85    49    52    1
    86    49    51    1
