@<TRIPOS>MOLECULE
7126394.cif
 32 33 0 0 0
SMALL
GASTEIGER

@<TRIPOS>ATOM
      1 S           4.3641    4.5773    3.5013 S.3     1  LIG1       -0.1082
      2 C           4.2187    5.9576    2.3413 C.3     1  LIG1        0.0156
      3 H           4.4161    6.7944    2.7908 H       1  LIG1        0.0396
      4 H           4.8455    5.8470    1.6093 H       1  LIG1        0.0396
      5 N           2.0097    5.1491    2.6295 N.pl3   1  LIG1       -0.2939
      6 O           1.8796    1.7115    5.8747 O.3     1  LIG1       -0.4618
      7 C           2.8575    5.9701    1.8367 C.3     1  LIG1        0.0271
      8 H           2.5205    6.8798    1.8406 H       1  LIG1        0.0476
      9 H           2.8503    5.6515    0.9206 H       1  LIG1        0.0476
     10 O           3.9214    2.5437    5.3920 O.2     1  LIG1       -0.2455
     11 C           2.6329    4.3095    3.5106 C.2     1  LIG1        0.0750
     12 C           2.0007    3.3924    4.2903 C.2     1  LIG1        0.0503
     13 H           1.0768    3.3066    4.2276 H       1  LIG1        0.0713
     14 C           2.7190    2.5505    5.2090 C.2     1  LIG1        0.3342
     15 C           2.5163    0.7848    6.7863 C.3     1  LIG1        0.0900
     16 H           2.9366    1.2683    7.5147 H       1  LIG1        0.0695
     17 H           3.1988    0.2754    6.3219 H       1  LIG1        0.0695
     18 C           1.4588   -0.1346    7.3193 C.3     1  LIG1       -0.0306
     19 H           1.8567   -0.7611    7.9282 H       1  LIG1        0.0262
     20 H           0.7907    0.3785    7.7794 H       1  LIG1        0.0262
     21 H           1.0519   -0.6104    6.5914 H       1  LIG1        0.0262
     22 C           0.6049    5.0649    2.3522 C.ar    1  LIG1        0.0343
     23 C          -0.2291    6.0730    2.7777 C.ar    1  LIG1       -0.0403
     24 H           0.1131    6.7878    3.2643 H       1  LIG1        0.0636
     25 C          -1.5891    6.0187    2.4768 C.ar    1  LIG1       -0.0600
     26 H          -2.1526    6.7044    2.7551 H       1  LIG1        0.0618
     27 C          -2.1007    4.9574    1.7708 C.ar    1  LIG1       -0.0616
     28 H          -3.0074    4.9256    1.5666 H       1  LIG1        0.0618
     29 C          -1.2698    3.9465    1.3693 C.ar    1  LIG1       -0.0600
     30 H          -1.6186    3.2215    0.9031 H       1  LIG1        0.0618
     31 C           0.0891    3.9934    1.6510 C.ar    1  LIG1       -0.0403
     32 H           0.6489    3.3066    1.3687 H       1  LIG1        0.0636
@<TRIPOS>BOND
     1    30    29    1
     2     9     7    1
     3    32    31    1
     4    29    31   ar
     5    29    27   ar
     6    28    27    1
     7     4     2    1
     8    31    22   ar
     9    27    25   ar
    10     7     8    1
    11     7     2    1
    12     7     5    1
    13     2     3    1
    14     2     1    1
    15    22     5    1
    16    22    23   ar
    17    25    26    1
    18    25    23   ar
    19     5    11    1
    20    23    24    1
    21     1    11    1
    22    11    12    2
    23    13    12    1
    24    12    14    1
    25    14    10    2
    26    14     6    1
    27     6    15    1
    28    17    15    1
    29    21    18    1
    30    15    18    1
    31    15    16    1
    32    18    20    1
    33    18    19    1
