@<TRIPOS>MOLECULE
C24 H28 Cl O P
 55 57 0 0 0
SMALL
GASTEIGER

@<TRIPOS>ATOM
      1 P          10.6569    3.1489    1.8125 P.3     1  LIG1        0.1271
      2 CL         13.0515    1.4224   10.5491 Cl      1  LIG1       -0.0835
      3 O          10.4205    3.3459    3.2676 O.2     1  LIG1       -0.3151
      4 C          12.4061    2.7989    1.4099 C.ar    1  LIG1        0.0205
      5 C          13.1199    2.2240    3.7659 C.ar    1  LIG1       -0.0456
      6 H          12.2503    2.3427    4.0736 H       1  LIG1        0.0630
      7 C          13.3898    2.4088    2.3874 C.ar    1  LIG1       -0.0069
      8 C          13.8161    1.7491    6.1130 C.ar    1  LIG1       -0.0178
      9 C          14.7293    2.2102    1.9476 C.ar    1  LIG1       -0.0172
     10 C          14.1018    1.8745    4.6642 C.ar    1  LIG1       -0.0173
     11 C          12.6339    1.2285    6.5990 C.ar    1  LIG1       -0.0527
     12 H          11.9863    0.9380    5.9983 H       1  LIG1        0.0624
     13 C          15.0583    2.3748    0.5866 C.ar    1  LIG1       -0.0540
     14 H          15.9364    2.2469    0.3098 H       1  LIG1        0.0624
     15 C          12.7997    2.9281    0.0937 C.ar    1  LIG1       -0.0507
     16 H          12.1638    3.1658   -0.5422 H       1  LIG1        0.0625
     17 C           9.7020    1.6669    1.2488 C.3     1  LIG1        0.0199
     18 C          12.3913    1.1276    7.9528 C.ar    1  LIG1       -0.0428
     19 H          11.5880    0.7724    8.2595 H       1  LIG1        0.0632
     20 C          10.1620    4.7303    0.9366 C.3     1  LIG1        0.0199
     21 C          14.1182    2.7150   -0.3195 C.ar    1  LIG1       -0.0605
     22 H          14.3469    2.8073   -1.2166 H       1  LIG1        0.0618
     23 C          13.3392    1.5559    8.8418 C.ar    1  LIG1        0.0410
     24 C          15.4179    1.6725    4.1941 C.ar    1  LIG1       -0.0534
     25 H          16.0873    1.4262    4.7910 H       1  LIG1        0.0624
     26 C          15.7146    1.8329    2.8855 C.ar    1  LIG1       -0.0534
     27 H          16.5869    1.6904    2.5962 H       1  LIG1        0.0624
     28 C           9.9665    1.2236   -0.2000 C.3     1  LIG1       -0.0531
     29 H           9.7251    1.9322   -0.8008 H       1  LIG1        0.0239
     30 H           9.4426    0.4440   -0.3970 H       1  LIG1        0.0239
     31 H          10.8987    1.0178   -0.3067 H       1  LIG1        0.0239
     32 C          14.5128    2.0887    8.3991 C.ar    1  LIG1       -0.0428
     33 H          15.1492    2.3898    9.0065 H       1  LIG1        0.0632
     34 C           8.2046    1.9101    1.4696 C.3     1  LIG1       -0.0531
     35 H           8.0650    2.2645    2.3512 H       1  LIG1        0.0239
     36 H           7.7292    1.0811    1.3795 H       1  LIG1        0.0239
     37 H           7.8825    2.5368    0.8182 H       1  LIG1        0.0239
     38 C           9.0016    5.3156    1.7696 C.3     1  LIG1       -0.0531
     39 H           8.2680    4.6964    1.7765 H       1  LIG1        0.0239
     40 H           8.7157    6.1459    1.3815 H       1  LIG1        0.0239
     41 H           9.2988    5.4692    2.6697 H       1  LIG1        0.0239
     42 C          14.7502    2.1780    7.0405 C.ar    1  LIG1       -0.0527
     43 H          15.5558    2.5331    6.7424 H       1  LIG1        0.0624
     44 C           9.7133    4.6148   -0.5244 C.3     1  LIG1       -0.0531
     45 H          10.4257    4.2417   -1.0490 H       1  LIG1        0.0239
     46 H           9.4920    5.4868   -0.8605 H       1  LIG1        0.0239
     47 H           8.9431    4.0457   -0.5788 H       1  LIG1        0.0239
     48 C          11.3390    5.7091    1.0354 C.3     1  LIG1       -0.0531
     49 H          11.6809    5.7097    1.9320 H       1  LIG1        0.0239
     50 H          11.0404    6.5923    0.8057 H       1  LIG1        0.0239
     51 H          12.0319    5.4381    0.4284 H       1  LIG1        0.0239
     52 C          10.1631    0.5373    2.1879 C.3     1  LIG1       -0.0531
     53 H          11.1089    0.4045    2.0880 H       1  LIG1        0.0239
     54 H           9.7004   -0.2729    1.9651 H       1  LIG1        0.0239
     55 H           9.9686    0.7783    3.0967 H       1  LIG1        0.0239
@<TRIPOS>BOND
     1    22    21    1
     2    45    44    1
     3    46    44    1
     4    29    28    1
     5    47    44    1
     6    16    15    1
     7    44    20    1
     8    30    28    1
     9    21    15   ar
    10    21    13   ar
    11    31    28    1
    12    28    17    1
    13    15     4   ar
    14    14    13    1
    15    51    48    1
    16    13     9   ar
    17    50    48    1
    18    37    34    1
    19    20    48    1
    20    20    38    1
    21    20     1    1
    22    48    49    1
    23    17    34    1
    24    17     1    1
    25    17    52    1
    26    36    34    1
    27    40    38    1
    28     4     1    1
    29     4     7   ar
    30    34    35    1
    31    38    39    1
    32    38    41    1
    33     1     3    2
    34     9     7   ar
    35     9    26   ar
    36    54    52    1
    37    53    52    1
    38    52    55    1
    39     7     5   ar
    40    27    26    1
    41    26    24   ar
    42     5     6    1
    43     5    10   ar
    44    24    10   ar
    45    24    25    1
    46    10     8    1
    47    12    11    1
    48     8    11   ar
    49     8    42   ar
    50    11    18   ar
    51    43    42    1
    52    42    32   ar
    53    18    19    1
    54    18    23   ar
    55    32    23   ar
    56    32    33    1
    57    23     2    1
