@<TRIPOS>MOLECULE
(4S,4aR,11aR)-7-bromo-11a-hydroxy-4-(nitromethyl)-1,2,3,4,4a,10,11,11a-octahydro-5H-dibenzo[a,d][7]annulen-5-one
 40 42 0 0 0
SMALL
GASTEIGER

@<TRIPOS>ATOM
      1 BR         -3.0849   -1.6247   -1.1229 Br      1  LIG1       -0.0503
      2 C          -6.2460    3.5744   -2.3165 C.3     1  LIG1       -0.0244
      3 H          -5.6017    4.2950   -2.2315 H       1  LIG1        0.0314
      4 H          -6.9436    3.7261   -1.6596 H       1  LIG1        0.0314
      5 C         -10.9140    2.2372   -2.7118 C.3     1  LIG1       -0.0475
      6 H         -11.7967    1.8707   -2.8786 H       1  LIG1        0.0269
      7 H         -10.8514    2.4458   -1.7667 H       1  LIG1        0.0269
      8 C          -6.0155    1.0154   -2.4325 C.ar    1  LIG1        0.0220
      9 C          -5.5575    2.2703   -1.9974 C.ar    1  LIG1       -0.0367
     10 C          -4.3476    2.3096   -1.2886 C.ar    1  LIG1       -0.0569
     11 H          -4.0267    3.1310   -0.9926 H       1  LIG1        0.0621
     12 O          -7.4313   -0.1309   -3.9374 O.2     1  LIG1       -0.2916
     13 C          -9.8485    1.1871   -3.0729 C.3     1  LIG1       -0.0043
     14 H          -9.9605    0.9754   -4.0236 H       1  LIG1        0.0328
     15 C          -4.1060   -0.0477   -1.4597 C.ar    1  LIG1        0.0186
     16 C          -3.6163    1.1656   -1.0158 C.ar    1  LIG1       -0.0475
     17 H          -2.8156    1.2133   -0.5444 H       1  LIG1        0.0629
     18 C          -5.2808   -0.1347   -2.1885 C.ar    1  LIG1       -0.0370
     19 H          -5.5741   -0.9562   -2.5109 H       1  LIG1        0.0636
     20 C          -6.8644    3.6322   -3.7078 C.3     1  LIG1       -0.0193
     21 H          -6.2852    3.1525   -4.3206 H       1  LIG1        0.0296
     22 H          -6.8876    4.5583   -3.9949 H       1  LIG1        0.0296
     23 C         -10.0416   -0.1139   -2.2922 C.3     1  LIG1        0.1028
     24 H         -10.9645   -0.4026   -2.3728 H       1  LIG1        0.0561
     25 H          -9.4777   -0.8045   -2.6743 H       1  LIG1        0.0561
     26 C          -8.2975    3.0448   -3.8259 C.3     1  LIG1        0.0765
     27 C         -10.7367    3.5097   -3.5201 C.3     1  LIG1       -0.0501
     28 H         -10.9570    3.3273   -4.4465 H       1  LIG1        0.0266
     29 H         -11.3596    4.1787   -3.1954 H       1  LIG1        0.0266
     30 C          -7.2982    0.8191   -3.1701 C.2     1  LIG1        0.1696
     31 C          -8.4467    1.7930   -2.9051 C.3     1  LIG1        0.0555
     32 H          -8.3678    2.0978   -1.9765 H       1  LIG1        0.0412
     33 C          -9.3363    4.0679   -3.4494 C.3     1  LIG1       -0.0233
     34 H          -9.2664    4.8285   -4.0468 H       1  LIG1        0.0293
     35 H          -9.1640    4.3812   -2.5473 H       1  LIG1        0.0293
     36 O         -10.5654    0.5443   -0.0916 O.2     1  LIG1       -0.1317
     37 O          -8.4497    2.5952   -5.1719 O.3     1  LIG1       -0.3878
     38 H          -8.8178    3.1787   -5.6147 H       1  LIG1        0.2102
     39 O          -8.5960   -0.2433   -0.4626 O.2     1  LIG1       -0.1317
     40 N          -9.7021    0.0593   -0.8502 N.pl3   1  LIG1        0.0227
@<TRIPOS>BOND
     1    38    37    1
     2    37    26    1
     3    28    27    1
     4    21    20    1
     5    34    33    1
     6    14    13    1
     7    22    20    1
     8    12    30    2
     9    26    20    1
    10    26    33    1
    11    26    31    1
    12    20     2    1
    13    27    33    1
    14    27    29    1
    15    27     5    1
    16    33    35    1
    17    30    31    1
    18    30     8    1
    19    13    31    1
    20    13     5    1
    21    13    23    1
    22    31    32    1
    23     6     5    1
    24     5     7    1
    25    25    23    1
    26    19    18    1
    27     8    18   ar
    28     8     9   ar
    29    24    23    1
    30     2     3    1
    31     2     9    1
    32     2     4    1
    33    23    40    1
    34    18    15   ar
    35     9    10   ar
    36    15     1    1
    37    15    16   ar
    38    10    16   ar
    39    10    11    1
    40    16    17    1
    41    40    39    2
    42    40    36    2
