@<TRIPOS>MOLECULE
C25 H36 N2 O6, 2(H2 O)
 75 78 0 0 0
SMALL
GASTEIGER

@<TRIPOS>ATOM
      1 O           2.9831    4.0815    0.9604 O.3     1  LIG1       -0.4581
      2 O           1.8895    2.6821    2.2811 O.2     1  LIG1       -0.2505
      3 O           5.6710    5.1685    0.5052 O.3     1  LIG1       -0.3611
      4 O           6.0286    7.4019    3.6757 O.3     1  LIG1       -0.4538
      5 O           4.1946    7.3504    4.9397 O.2     1  LIG1       -0.2453
      6 O           1.4904   10.0661   -0.1318 O.3     1  LIG1       -0.3650
      7 N           0.2582    6.2903    4.1871 N.3     1  LIG1       -0.2991
      8 N          -0.7276    7.8112    6.4350 N.3     1  LIG1       -0.3029
      9 C           2.2224    3.8063    2.0399 C.2     1  LIG1        0.3122
     10 C           1.9237    5.0803    2.8020 C.3     1  LIG1        0.0753
     11 H           2.6149    5.1905    3.4881 H       1  LIG1        0.0430
     12 C           2.1421    6.1661    1.7288 C.3     1  LIG1        0.0129
     13 H           2.4683    6.9946    2.1374 H       1  LIG1        0.0346
     14 C           3.2372    5.5210    0.8682 C.3     1  LIG1        0.1353
     15 H           3.1469    5.8163   -0.0622 H       1  LIG1        0.0764
     16 C           4.6485    5.7457    1.3423 C.3     1  LIG1        0.1252
     17 H           4.7886    5.6435    2.3068 H       1  LIG1        0.0662
     18 C           5.6258    6.6141    0.6483 C.3     1  LIG1        0.1005
     19 C           6.8166    7.1731    1.4010 C.3     1  LIG1        0.0196
     20 H           7.3174    6.4295    1.7730 H       1  LIG1        0.0333
     21 H           7.3943    7.6227    0.7654 H       1  LIG1        0.0333
     22 C           6.4959    8.1409    2.5212 C.3     1  LIG1        0.1250
     23 H           7.3130    8.6226    2.7656 H       1  LIG1        0.0780
     24 C           5.4142    9.1282    2.2725 C.2     1  LIG1       -0.0339
     25 H           5.4295    9.7769    1.6068 H       1  LIG1        0.0613
     26 C           4.4215    8.9521    3.1365 C.2     1  LIG1        0.0362
     27 C           4.8160    7.8446    4.0294 C.2     1  LIG1        0.3355
     28 C           3.1132    9.6602    3.2887 C.3     1  LIG1       -0.0187
     29 H           3.1703   10.2505    4.0562 H       1  LIG1        0.0316
     30 H           2.4266    9.0013    3.4773 H       1  LIG1        0.0316
     31 C           2.6815   10.4748    2.0828 C.3     1  LIG1       -0.0197
     32 H           1.8980   10.9987    2.3111 H       1  LIG1        0.0294
     33 H           3.3925   11.0891    1.8373 H       1  LIG1        0.0294
     34 C           2.3633    9.5836    0.9079 C.3     1  LIG1        0.0884
     35 H           3.1244    9.0585    0.5831 H       1  LIG1        0.0625
     36 C           1.0529    8.9463    0.6903 C.3     1  LIG1        0.0932
     37 C           0.9950    7.6376   -0.0407 C.3     1  LIG1       -0.0212
     38 H           1.7935    7.5449   -0.5842 H       1  LIG1        0.0294
     39 H           0.2303    7.6444   -0.6378 H       1  LIG1        0.0294
     40 C           0.8869    6.4364    0.8876 C.3     1  LIG1       -0.0433
     41 H           0.6950    5.6492    0.3548 H       1  LIG1        0.0270
     42 H           0.1362    6.5748    1.4868 H       1  LIG1        0.0270
     43 C           5.2852    7.3504   -0.6179 C.3     1  LIG1       -0.0331
     44 H           6.0512    7.3619   -1.1973 H       1  LIG1        0.0258
     45 H           5.0308    8.2519   -0.4052 H       1  LIG1        0.0258
     46 H           4.5570    6.9077   -1.0591 H       1  LIG1        0.0258
     47 C          -0.1122    9.2484    1.5982 C.3     1  LIG1       -0.0334
     48 H          -0.0709   10.1659    1.8769 H       1  LIG1        0.0258
     49 H          -0.0734    8.6775    2.3690 H       1  LIG1        0.0258
     50 H          -0.9339    9.0939    1.1266 H       1  LIG1        0.0258
     51 C           0.5683    5.0333    3.5052 C.3     1  LIG1        0.0123
     52 H          -0.1240    4.8461    2.8513 H       1  LIG1        0.0435
     53 H           0.5694    4.3107    4.1527 H       1  LIG1        0.0435
     54 C           1.0191    6.4489    5.4229 C.3     1  LIG1        0.0117
     55 H           1.9678    6.4226    5.2224 H       1  LIG1        0.0439
     56 H           0.8188    5.7122    6.0210 H       1  LIG1        0.0439
     57 C           0.6867    7.7565    6.1100 C.3     1  LIG1        0.0114
     58 H           1.2107    7.8389    6.9225 H       1  LIG1        0.0439
     59 H           0.9160    8.4979    5.5269 H       1  LIG1        0.0439
     60 C          -1.5018    7.6593    5.2096 C.3     1  LIG1        0.0114
     61 H          -1.3129    8.4006    4.6136 H       1  LIG1        0.0439
     62 H          -2.4485    7.6765    5.4207 H       1  LIG1        0.0439
     63 C          -1.1648    6.3608    4.5171 C.3     1  LIG1        0.0117
     64 H          -1.3986    5.6172    5.0959 H       1  LIG1        0.0439
     65 H          -1.6888    6.2830    3.7046 H       1  LIG1        0.0439
     66 C          -1.0764    9.0516    7.1273 C.3     1  LIG1       -0.0127
     67 H          -0.5844    9.1076    7.9494 H       1  LIG1        0.0391
     68 H          -2.0178    9.0596    7.3159 H       1  LIG1        0.0391
     69 H          -0.8551    9.8021    6.5698 H       1  LIG1        0.0391
     70 O          -0.0582    0.9747    3.6113 O.3     2  HOH2       -0.4105
     71 H           0.4769    1.5055    3.2169 H       0  HOH0        0.2052
     72 H           0.2674    0.8855    4.3917 H       0  HOH0        0.2052
     73 O          -1.8985    5.6651    8.0558 O.3     3  HOH3       -0.4105
     74 H          -1.4523    6.1526    7.5206 H       0  HOH0        0.2052
     75 H          -2.7100    5.8494    7.8851 H       0  HOH0        0.2052
@<TRIPOS>BOND
     1    44    43    1
     2    46    43    1
     3    39    37    1
     4    43    45    1
     5    43    18    1
     6    38    37    1
     7     6    36    1
     8     6    34    1
     9    15    14    1
    10    37    36    1
    11    37    40    1
    12    41    40    1
    13     3    18    1
    14     3    16    1
    15    35    34    1
    16    18    16    1
    17    18    19    1
    18    36    34    1
    19    36    47    1
    20    21    19    1
    21    14     1    1
    22    14    16    1
    23    14    12    1
    24    40    42    1
    25    40    12    1
    26    34    31    1
    27     1     9    1
    28    50    47    1
    29    16    17    1
    30    19    20    1
    31    19    22    1
    32    47    48    1
    33    47    49    1
    34    25    24    1
    35    12    13    1
    36    12    10    1
    37    33    31    1
    38     9     2    2
    39     9    10    1
    40    31    32    1
    41    31    28    1
    42    24    22    1
    43    24    26    2
    44    22    23    1
    45    22     4    1
    46    10    11    1
    47    10    51    1
    48    52    51    1
    49    26    28    1
    50    26    27    1
    51    71    70    1
    52    28    30    1
    53    28    29    1
    54    51    53    1
    55    51     7    1
    56    70    72    1
    57     4    27    1
    58    65    63    1
    59    27     5    2
    60     7    63    1
    61     7    54    1
    62    63    64    1
    63    63    60    1
    64    61    60    1
    65    60    62    1
    66    60     8    1
    67    55    54    1
    68    54    56    1
    69    54    57    1
    70    59    57    1
    71    57     8    1
    72    57    58    1
    73     8    66    1
    74    69    66    1
    75    66    68    1
    76    66    67    1
    77    74    73    1
    78    75    73    1
