@<TRIPOS>MOLECULE
C27 H22 F O2 P
 53 56 0 0 0
SMALL
GASTEIGER

@<TRIPOS>ATOM
      1 P          -7.4579   -1.7238   -2.4759 P.3     1  LIG1        0.1909
      2 F         -10.0600   -1.4194   -2.3861 F       1  LIG1       -0.2193
      3 O          -6.3214   -1.9744   -3.3916 O.2     1  LIG1       -0.3074
      4 O          -8.5387   -4.2194   -3.6972 O.2     1  LIG1       -0.2877
      5 C          -9.4578   -3.4753   -3.4597 C.2     1  LIG1        0.2124
      6 C         -10.8580   -3.9526   -3.3663 C.ar    1  LIG1        0.0215
      7 C         -11.9838   -3.1367   -3.5224 C.ar    1  LIG1       -0.0509
      8 H         -11.8769   -2.2286   -3.6946 H       1  LIG1        0.0625
      9 C         -13.2500   -3.6683   -3.4223 C.ar    1  LIG1       -0.0582
     10 H         -13.9882   -3.1163   -3.5417 H       1  LIG1        0.0620
     11 C         -13.4418   -5.0062   -3.1501 C.ar    1  LIG1       -0.0504
     12 C         -11.0621   -5.3051   -3.1168 C.ar    1  LIG1       -0.0509
     13 H         -10.3295   -5.8699   -3.0255 H       1  LIG1        0.0625
     14 C         -12.3279   -5.8173   -3.0034 C.ar    1  LIG1       -0.0582
     15 H         -12.4417   -6.7227   -2.8257 H       1  LIG1        0.0620
     16 C         -14.8308   -5.5864   -2.9873 C.3     1  LIG1       -0.0397
     17 H         -14.9416   -5.9034   -2.0887 H       1  LIG1        0.0278
     18 H         -14.9466   -6.3156   -3.6012 H       1  LIG1        0.0278
     19 H         -15.4843   -4.9073   -3.1708 H       1  LIG1        0.0278
     20 C          -9.1376   -1.9763   -3.2835 C.3     1  LIG1        0.2571
     21 C          -9.2063   -1.2496   -4.6058 C.ar    1  LIG1        0.0047
     22 C          -8.4266   -1.6707   -5.6692 C.ar    1  LIG1       -0.0547
     23 H          -7.8843   -2.4220   -5.5914 H       1  LIG1        0.0622
     24 C          -8.4722   -0.9362   -6.8753 C.ar    1  LIG1       -0.0614
     25 H          -7.9302   -1.1881   -7.5878 H       1  LIG1        0.0618
     26 C          -9.3018    0.1368   -7.0034 C.ar    1  LIG1       -0.0617
     27 H          -9.3407    0.5971   -7.8110 H       1  LIG1        0.0618
     28 C         -10.0694    0.5365   -5.9627 C.ar    1  LIG1       -0.0614
     29 H         -10.6228    1.2785   -6.0530 H       1  LIG1        0.0618
     30 C         -10.0350   -0.1581   -4.7592 C.ar    1  LIG1       -0.0547
     31 H         -10.5745    0.1148   -4.0533 H       1  LIG1        0.0622
     32 C          -7.5926   -0.0175   -1.9506 C.ar    1  LIG1        0.0193
     33 C          -7.9023    0.3726   -0.6658 C.ar    1  LIG1       -0.0509
     34 H          -8.0394   -0.2731   -0.0103 H       1  LIG1        0.0625
     35 C          -8.0117    1.7250   -0.3362 C.ar    1  LIG1       -0.0611
     36 H          -8.2004    1.9804    0.5374 H       1  LIG1        0.0618
     37 C          -7.8399    2.6758   -1.3116 C.ar    1  LIG1       -0.0617
     38 H          -7.9333    3.5761   -1.0983 H       1  LIG1        0.0618
     39 C          -7.5321    2.3130   -2.5937 C.ar    1  LIG1       -0.0611
     40 H          -7.4121    2.9627   -3.2483 H       1  LIG1        0.0618
     41 C          -7.4000    0.9663   -2.9100 C.ar    1  LIG1       -0.0509
     42 H          -7.1786    0.7198   -3.7790 H       1  LIG1        0.0625
     43 C          -7.4471   -2.7573   -0.9953 C.ar    1  LIG1        0.0193
     44 C          -6.2086   -3.1638   -0.5337 C.ar    1  LIG1       -0.0509
     45 H          -5.4319   -2.9114   -0.9788 H       1  LIG1        0.0625
     46 C          -6.1463   -3.9594    0.6111 C.ar    1  LIG1       -0.0611
     47 H          -5.3157   -4.2251    0.9330 H       1  LIG1        0.0618
     48 C          -7.2614   -4.3543    1.2649 C.ar    1  LIG1       -0.0617
     49 H          -7.1918   -4.9038    2.0111 H       1  LIG1        0.0618
     50 C          -8.4967   -3.9448    0.8286 C.ar    1  LIG1       -0.0611
     51 H          -9.2669   -4.2041    1.2808 H       1  LIG1        0.0618
     52 C          -8.5784   -3.1347   -0.3015 C.ar    1  LIG1       -0.0509
     53 H          -9.4119   -2.8425   -0.5937 H       1  LIG1        0.0625
@<TRIPOS>BOND
     1    27    26    1
     2    25    24    1
     3    26    24   ar
     4    26    28   ar
     5    24    22   ar
     6    29    28    1
     7    28    30   ar
     8    22    23    1
     9    22    21   ar
    10    30    21   ar
    11    30    31    1
    12    21    20    1
    13    42    41    1
    14     4     5    2
    15     8     7    1
    16    18    16    1
    17    10     9    1
    18     7     9   ar
    19     7     6   ar
    20     5     6    1
    21     5    20    1
    22     9    11   ar
    23     3     1    2
    24     6    12   ar
    25    20     1    1
    26    20     2    1
    27    40    39    1
    28    19    16    1
    29    11    14   ar
    30    11    16    1
    31    12    13    1
    32    12    14   ar
    33    14    15    1
    34    16    17    1
    35    41    39   ar
    36    41    32   ar
    37    39    37   ar
    38     1    32    1
    39     1    43    1
    40    32    33   ar
    41    37    38    1
    42    37    35   ar
    43    43    44   ar
    44    43    52   ar
    45    45    44    1
    46    33    35   ar
    47    33    34    1
    48    53    52    1
    49    44    46   ar
    50    35    36    1
    51    52    50   ar
    52    46    47    1
    53    46    48   ar
    54    50    48   ar
    55    50    51    1
    56    48    49    1
