@<TRIPOS>MOLECULE
7127798.cif
 47 49 0 0 0
SMALL
GASTEIGER

@<TRIPOS>ATOM
      1 BR          8.0788   -0.9161    2.6869 Br      1  LIG1       -0.0503
      2 CL          6.0013   -1.9559   11.7288 Cl      1  LIG1       -0.0835
      3 F           7.8442    1.2387    8.1509 F       1  LIG1       -0.1883
      4 F           7.7308    3.3745    7.9183 F       1  LIG1       -0.1883
      5 I           1.5060    1.1563    5.0329 I       1  LIG1       -0.0429
      6 O           6.1219    3.3821   10.2481 O.3     1  LIG1       -0.4605
      7 O           7.7618    1.9217   10.6306 O.2     1  LIG1       -0.2437
      8 O           1.4829    2.8344   10.2925 O.3     1  LIG1       -0.3868
      9 H           0.9667    2.2027   10.3701 H       1  LIG1        0.2102
     10 C           7.0303    2.4941    9.9036 C.2     1  LIG1        0.3816
     11 C           7.0368    2.3120    8.3949 C.3     1  LIG1        0.3622
     12 C           5.7616    2.1926    7.6730 C.2     1  LIG1        0.0032
     13 H           5.7160    2.6001    6.8380 H       1  LIG1        0.0643
     14 C           4.6690    1.5623    8.0899 C.2     1  LIG1       -0.0110
     15 C           3.4272    1.5701    7.3095 C.2     1  LIG1       -0.0233
     16 C           2.2104    2.0088    8.1128 C.3     1  LIG1        0.0042
     17 H           1.5775    1.2756    8.1624 H       1  LIG1        0.0342
     18 H           1.7771    2.7486    7.6590 H       1  LIG1        0.0342
     19 C           2.5935    2.4398    9.5274 C.3     1  LIG1        0.0847
     20 H           3.1812    3.2196    9.4448 H       1  LIG1        0.0647
     21 C           3.3973    1.3391   10.1527 C.ar    1  LIG1       -0.0110
     22 C           4.4918    0.8990    9.4003 C.ar    1  LIG1       -0.0107
     23 C           5.2899   -0.1155    9.8896 C.ar    1  LIG1       -0.0353
     24 H           6.0110   -0.4231    9.3889 H       1  LIG1        0.0638
     25 C           5.0181   -0.6685   11.1162 C.ar    1  LIG1        0.0416
     26 C           3.9556   -0.2251   11.8711 C.ar    1  LIG1       -0.0430
     27 H           3.7796   -0.6074   12.6998 H       1  LIG1        0.0632
     28 C           3.1587    0.7811   11.3945 C.ar    1  LIG1       -0.0542
     29 H           2.4510    1.0924   11.9105 H       1  LIG1        0.0622
     30 C           3.3854    1.1854    6.0372 C.2     1  LIG1        0.0243
     31 C           4.4838    0.6730    5.2009 C.ar    1  LIG1       -0.0116
     32 C           5.4003   -0.2562    5.7233 C.ar    1  LIG1       -0.0526
     33 H           5.2922   -0.5621    6.5952 H       1  LIG1        0.0624
     34 C           6.4589   -0.7246    4.9683 C.ar    1  LIG1       -0.0472
     35 H           7.0490   -1.3505    5.3204 H       1  LIG1        0.0629
     36 C           6.6240   -0.2559    3.7050 C.ar    1  LIG1        0.0179
     37 C           5.7626    0.6402    3.1521 C.ar    1  LIG1       -0.0472
     38 H           5.8890    0.9395    2.2802 H       1  LIG1        0.0629
     39 C           4.6922    1.1026    3.9083 C.ar    1  LIG1       -0.0526
     40 H           4.1023    1.7162    3.5321 H       1  LIG1        0.0624
     41 C           6.0000    3.6551   11.6792 C.3     1  LIG1        0.0899
     42 H           5.8520    2.8270   12.1635 H       1  LIG1        0.0694
     43 H           6.8157    4.0612   12.0109 H       1  LIG1        0.0694
     44 C           4.8790    4.5551   11.8813 C.3     1  LIG1       -0.0306
     45 H           5.0191    5.3591   11.3742 H       1  LIG1        0.0262
     46 H           4.8073    4.7734   12.8129 H       1  LIG1        0.0262
     47 H           4.0695    4.1297   11.5890 H       1  LIG1        0.0262
@<TRIPOS>BOND
     1    38    37    1
     2     1    36    1
     3    37    36   ar
     4    37    39   ar
     5    40    39    1
     6    36    34   ar
     7    39    31   ar
     8    34    35    1
     9    34    32   ar
    10     5    30    1
    11    31    32   ar
    12    31    30    1
    13    32    33    1
    14    30    15    2
    15    13    12    1
    16    15    14    1
    17    15    16    1
    18    18    16    1
    19    12    14    2
    20    12    11    1
    21     4    11    1
    22    14    22    1
    23    16    17    1
    24    16    19    1
    25     3    11    1
    26    11    10    1
    27    24    23    1
    28    22    23   ar
    29    22    21   ar
    30    20    19    1
    31    19    21    1
    32    19     8    1
    33    23    25   ar
    34    10     6    1
    35    10     7    2
    36    21    28   ar
    37     6    41    1
    38     8     9    1
    39    25     2    1
    40    25    26   ar
    41    45    44    1
    42    28    26   ar
    43    28    29    1
    44    47    44    1
    45    41    44    1
    46    41    43    1
    47    41    42    1
    48    26    27    1
    49    44    46    1
