@<TRIPOS>MOLECULE
C18 H18 N2 O3
 41 42 0 0 0
SMALL
GASTEIGER

@<TRIPOS>ATOM
      1 O           6.7801    4.1158    3.0184 O.3     1  LIG1       -0.4614
      2 O           5.4159    3.8485    1.2511 O.2     1  LIG1       -0.2449
      3 O           2.9443    9.4314    1.7303 O.2     1  LIG1       -0.2739
      4 N           6.3209   10.4630    2.4889 N.1     1  LIG1       -0.1951
      5 N           3.7259    8.0832    0.1028 N.am    1  LIG1       -0.3277
      6 C           3.2129    3.8138    6.7586 C.ar    1  LIG1       -0.0617
      7 C           3.3193    5.1847    6.8982 C.ar    1  LIG1       -0.0612
      8 C           3.7696    5.9651    5.8407 C.ar    1  LIG1       -0.0543
      9 C           4.1174    5.3858    4.6153 C.ar    1  LIG1       -0.0210
     10 C           3.9778    3.9958    4.4776 C.ar    1  LIG1       -0.0543
     11 C           3.5454    3.2236    5.5447 C.ar    1  LIG1       -0.0612
     12 C           4.6384    6.2449    3.5445 C.2     1  LIG1       -0.0237
     13 C           5.3972    5.9061    2.4763 C.2     1  LIG1        0.0676
     14 C           5.8192    7.0758    1.7035 C.2     1  LIG1       -0.0084
     15 C           4.9704    8.2387    2.2289 C.3     1  LIG1        0.1618
     16 C           4.4612    7.7477    3.6113 C.3     1  LIG1        0.0048
     17 C           5.8459    4.5163    2.1546 C.2     1  LIG1        0.3398
     18 C           7.2219    2.7317    2.8831 C.3     1  LIG1        0.0900
     19 C           7.9731    2.3940    4.1290 C.3     1  LIG1       -0.0306
     20 C           6.7700    7.2206    0.7759 C.2     1  LIG1       -0.0812
     21 C           7.6578    6.1702    0.1856 C.3     1  LIG1       -0.0462
     22 C           5.7403    9.4849    2.3728 C.1     1  LIG1        0.0837
     23 C           3.7657    8.6183    1.3096 C.2     1  LIG1        0.2353
     24 H           2.9209    3.2908    7.4698 H       1  LIG1        0.0618
     25 H           3.0885    5.5873    7.7044 H       1  LIG1        0.0618
     26 H           3.0971    8.2996   -0.4425 H       1  LIG1        0.1450
     27 H           4.3290    7.5189   -0.1374 H       1  LIG1        0.1450
     28 H           3.8408    6.8863    5.9490 H       1  LIG1        0.0624
     29 H           4.1771    3.5902    3.6651 H       1  LIG1        0.0624
     30 H           3.4771    2.3009    5.4473 H       1  LIG1        0.0618
     31 H           4.9875    8.1280    4.3310 H       1  LIG1        0.0337
     32 H           3.5295    7.9828    3.7422 H       1  LIG1        0.0337
     33 H           7.7950    2.6346    2.1063 H       1  LIG1        0.0695
     34 H           6.4585    2.1426    2.7790 H       1  LIG1        0.0695
     35 H           8.7177    2.9926    4.2260 H       1  LIG1        0.0262
     36 H           8.2938    1.4905    4.0740 H       1  LIG1        0.0262
     37 H           7.3916    2.4818    4.8875 H       1  LIG1        0.0262
     38 H           6.8962    8.0851    0.4559 H       1  LIG1        0.0573
     39 H           7.5339    5.3436    0.6581 H       1  LIG1        0.0272
     40 H           8.5739    6.4469    0.2592 H       1  LIG1        0.0272
     41 H           7.4345    6.0460   -0.7397 H       1  LIG1        0.0272
@<TRIPOS>BOND
     1    41    21    1
     2    26     5    1
     3    27     5    1
     4     5    23   am
     5    21    40    1
     6    21    39    1
     7    21    20    1
     8    38    20    1
     9    20    14    2
    10     2    17    2
    11    23     3    2
    12    23    15    1
    13    14    15    1
    14    14    13    1
    15    33    18    1
    16    17    13    1
    17    17     1    1
    18    15    22    1
    19    15    16    1
    20    22     4    3
    21    13    12    2
    22    34    18    1
    23    18     1    1
    24    18    19    1
    25    12    16    1
    26    12     9    1
    27    16    32    1
    28    16    31    1
    29    29    10    1
    30    36    19    1
    31    19    35    1
    32    19    37    1
    33    10     9   ar
    34    10    11   ar
    35     9     8   ar
    36    30    11    1
    37    11     6   ar
    38     8    28    1
    39     8     7   ar
    40     6     7   ar
    41     6    24    1
    42     7    25    1
