@<TRIPOS>MOLECULE
?
 35 35 0 0 0
SMALL
GASTEIGER

@<TRIPOS>ATOM
      1 O           9.1570    7.8032    6.1666 O.3     1  LIG1       -0.4775
      2 H           9.7191    7.1895    6.0499 H       1  LIG1        0.2954
      3 O           8.4965    6.4161    7.7781 O.2     1  LIG1       -0.2458
      4 O           2.7004    7.1819   11.2369 O.2     1  LIG1       -0.2749
      5 N           4.8657    7.7046   10.7565 N.am    1  LIG1       -0.2845
      6 H           5.6963    7.4285   10.8464 H       1  LIG1        0.1548
      7 C           8.4000    7.5066    7.1578 C.2     1  LIG1        0.3296
      8 C           7.4161    8.5072    7.5433 C.2     1  LIG1        0.0229
      9 H           7.4033    9.3333    7.0744 H       1  LIG1        0.0689
     10 C           6.5398    8.3209    8.5128 C.2     1  LIG1       -0.0461
     11 H           6.5677    7.4757    8.9451 H       1  LIG1        0.0626
     12 C           5.5328    9.2611    9.0003 C.ar    1  LIG1       -0.0036
     13 C           5.3623   10.5192    8.4024 C.ar    1  LIG1       -0.0528
     14 H           5.9486   10.7792    7.7010 H       1  LIG1        0.0624
     15 C           4.3718   11.3878    8.7994 C.ar    1  LIG1       -0.0611
     16 H           4.2736   12.2296    8.3703 H       1  LIG1        0.0618
     17 C           3.5219   11.0285    9.8256 C.ar    1  LIG1       -0.0600
     18 H           2.8257   11.6164   10.0933 H       1  LIG1        0.0618
     19 C           3.6838    9.8138   10.4647 C.ar    1  LIG1       -0.0399
     20 H           3.1085    9.5801   11.1830 H       1  LIG1        0.0636
     21 C           4.6782    8.9313   10.0671 C.ar    1  LIG1        0.0406
     22 C           3.8967    6.9037   11.2961 C.2     1  LIG1        0.2226
     23 C           4.4372    5.6516   11.9812 C.3     1  LIG1        0.0389
     24 C           5.2867    4.8371   11.0039 C.3     1  LIG1       -0.0517
     25 H           6.0844    5.3510   10.7586 H       1  LIG1        0.0239
     26 H           4.7623    4.6424   10.1998 H       1  LIG1        0.0239
     27 H           5.5573    3.9963   11.4292 H       1  LIG1        0.0239
     28 C           5.2522    6.0897   13.2058 C.3     1  LIG1       -0.0517
     29 H           6.0326    6.6039   12.9114 H       1  LIG1        0.0239
     30 H           5.5510    5.2979   13.7004 H       1  LIG1        0.0239
     31 H           4.6938    6.6466   13.7882 H       1  LIG1        0.0239
     32 C           3.2837    4.7720   12.4550 C.3     1  LIG1       -0.0517
     33 H           2.8219    4.3917   11.6780 H       1  LIG1        0.0239
     34 H           2.6547    5.3123   12.9779 H       1  LIG1        0.0239
     35 H           3.6340    4.0472   13.0138 H       1  LIG1        0.0239
@<TRIPOS>BOND
     1     2     1    1
     2     1     7    1
     3     9     8    1
     4     7     8    1
     5     7     3    2
     6     8    10    2
     7    14    13    1
     8    16    15    1
     9    13    15   ar
    10    13    12   ar
    11    10    11    1
    12    10    12    1
    13    15    17   ar
    14    12    21   ar
    15    17    18    1
    16    17    19   ar
    17    21    19   ar
    18    21     5    1
    19    26    24    1
    20    19    20    1
    21     5     6    1
    22     5    22   am
    23    25    24    1
    24    24    27    1
    25    24    23    1
    26     4    22    2
    27    22    23    1
    28    33    32    1
    29    23    32    1
    30    23    28    1
    31    32    34    1
    32    32    35    1
    33    29    28    1
    34    28    30    1
    35    28    31    1
