@<TRIPOS>MOLECULE
?
 165 169 0 0 0
SMALL
GASTEIGER

@<TRIPOS>ATOM
      1 C           5.8415    5.3581   21.0784 C.3     1  LIG1        0.0045
      2 H           5.4704    6.2678   20.9580 H       1  LIG1        0.0364
      3 H           5.1633    4.7024   20.7767 H       1  LIG1        0.0364
      4 C           7.1127    5.2035   20.2508 C.ar    1  LIG1       -0.0007
      5 C           8.0868    6.1986   20.2313 C.ar    1  LIG1        0.1275
      6 C           9.3614    5.9392   19.6947 C.ar    1  LIG1       -0.0007
      7 C           9.5777    4.7151   19.0615 C.ar    1  LIG1       -0.0511
      8 H          10.4252    4.5469   18.6660 H       1  LIG1        0.0624
      9 C           8.6002    3.7324   18.9872 C.ar    1  LIG1       -0.0412
     10 C           7.3750    4.0012   19.6101 C.ar    1  LIG1       -0.0511
     11 H           6.6979    3.3355   19.5934 H       1  LIG1        0.0624
     12 C           8.8166    2.4369   18.1955 C.3     1  LIG1       -0.0127
     13 C           7.8895    1.3050   18.6429 C.3     1  LIG1       -0.0560
     14 H           6.9591    1.6098   18.6056 H       1  LIG1        0.0238
     15 H           8.1115    1.0446   19.5615 H       1  LIG1        0.0238
     16 H           8.0039    0.5334   18.0477 H       1  LIG1        0.0238
     17 C           8.4893    2.7243   16.7010 C.3     1  LIG1       -0.0560
     18 H           7.5588    3.0228   16.6228 H       1  LIG1        0.0238
     19 H           8.6148    1.9067   16.1751 H       1  LIG1        0.0238
     20 H           9.0867    3.4244   16.3634 H       1  LIG1        0.0238
     21 C          10.2683    1.9702   18.2847 C.3     1  LIG1       -0.0560
     22 H          10.8624    2.6957   18.0015 H       1  LIG1        0.0238
     23 H          10.3983    1.1939   17.6995 H       1  LIG1        0.0238
     24 H          10.4756    1.7209   19.2097 H       1  LIG1        0.0238
     25 O           7.8604    7.4190   20.8293 O.3     1  LIG1       -0.4913
     26 C           6.9759    8.2840   20.0806 C.3     1  LIG1        0.0910
     27 H           6.6856    9.0334   20.6595 H       1  LIG1        0.0697
     28 H           6.1699    7.7744   19.8138 H       1  LIG1        0.0697
     29 C           7.6496    8.8461   18.8334 C.3     1  LIG1       -0.0030
     30 H           8.4780    9.3207   19.0960 H       1  LIG1        0.0313
     31 H           7.9052    8.0983   18.2360 H       1  LIG1        0.0313
     32 C           6.7416    9.8050   18.0726 C.3     1  LIG1        0.0150
     33 H           7.1642   10.0574   17.2127 H       1  LIG1        0.0463
     34 H           5.8773    9.3652   17.8772 H       1  LIG1        0.0463
     35 N           6.5152   11.0022   18.8845 N.am    1  LIG1       -0.3112
     36 H           7.0499   11.1433   19.5686 H       1  LIG1        0.1490
     37 C           5.5489   11.8942   18.6500 C.2     1  LIG1        0.2441
     38 O           4.8034   11.8531   17.6554 O.2     1  LIG1       -0.2702
     39 C          10.4824    6.9425   19.8944 C.3     1  LIG1        0.0045
     40 H          11.2043    6.7679   19.2381 H       1  LIG1        0.0364
     41 H          10.1394    7.8586   19.7356 H       1  LIG1        0.0364
     42 C          11.0406    6.8457   21.3058 C.ar    1  LIG1       -0.0007
     43 C          11.0104    7.9021   22.2162 C.ar    1  LIG1        0.1274
     44 C          11.3982    7.7225   23.5452 C.ar    1  LIG1       -0.0007
     45 C          11.9015    6.4774   23.9229 C.ar    1  LIG1       -0.0511
     46 H          12.1784    6.3551   24.8241 H       1  LIG1        0.0624
     47 C          12.0148    5.4121   23.0474 C.ar    1  LIG1       -0.0412
     48 C          11.5383    5.6121   21.7482 C.ar    1  LIG1       -0.0511
     49 H          11.5529    4.8818   21.1392 H       1  LIG1        0.0624
     50 O          10.5419    9.1513   21.7898 O.3     1  LIG1       -0.4914
     51 C          11.5933   10.0971   21.5126 C.3     1  LIG1        0.0894
     52 H          12.2905   10.0129   22.2087 H       1  LIG1        0.0696
     53 H          11.2222   11.0131   21.5691 H       1  LIG1        0.0696
     54 C          12.2289    9.9129   20.1677 C.3     1  LIG1       -0.0215
     55 H          11.5316    9.9478   19.4655 H       1  LIG1        0.0295
     56 H          12.6638    9.0239   20.1265 H       1  LIG1        0.0295
     57 C          13.2792   11.0131   19.9047 C.3     1  LIG1       -0.0622
     58 H          13.6884   10.8686   19.0249 H       1  LIG1        0.0231
     59 H          13.9709   10.9766   20.5991 H       1  LIG1        0.0231
     60 H          12.8443   11.8910   19.9239 H       1  LIG1        0.0231
     61 C          12.4878    4.0150   23.5128 C.3     1  LIG1       -0.0127
     62 C          11.3769    3.2101   23.7722 C.3     1  LIG1       -0.0560
     63 H          10.8041    3.6467   24.4367 H       1  LIG1        0.0238
     64 H          11.6751    2.3433   24.1169 H       1  LIG1        0.0238
     65 H          10.8702    3.0752   22.9443 H       1  LIG1        0.0238
     66 C          13.4530    3.4435   22.5424 C.3     1  LIG1       -0.0560
     67 H          14.2164    4.0499   22.4468 H       1  LIG1        0.0238
     68 H          13.0136    3.3308   21.6722 H       1  LIG1        0.0238
     69 H          13.7646    2.5735   22.8661 H       1  LIG1        0.0238
     70 C          13.3331    4.1230   24.7779 C.3     1  LIG1       -0.0560
     71 H          14.1166    4.6850   24.6037 H       1  LIG1        0.0238
     72 H          13.6279    3.2292   25.0515 H       1  LIG1        0.0238
     73 H          12.7983    4.5246   25.4956 H       1  LIG1        0.0238
     74 C          11.1852    8.7695   24.6297 C.3     1  LIG1        0.0045
     75 H          12.0518    8.9985   25.0515 H       1  LIG1        0.0364
     76 H          10.8063    9.5922   24.2342 H       1  LIG1        0.0364
     77 C          10.2335    8.2148   25.6776 C.ar    1  LIG1       -0.0007
     78 C           8.8749    8.0862   25.3922 C.ar    1  LIG1        0.1275
     79 C           8.0061    7.3847   26.2241 C.ar    1  LIG1       -0.0007
     80 C           8.5240    6.8663   27.4113 C.ar    1  LIG1       -0.0511
     81 H           7.9411    6.4027   28.0008 H       1  LIG1        0.0624
     82 C           9.8703    7.0037   27.7659 C.ar    1  LIG1       -0.0412
     83 C          10.7133    7.6768   26.8822 C.ar    1  LIG1       -0.0511
     84 H          11.6325    7.7728   27.1018 H       1  LIG1        0.0624
     85 C          10.3916    6.3218   29.0519 C.3     1  LIG1       -0.0127
     86 C           9.5396    6.7536   30.2430 C.3     1  LIG1       -0.0560
     87 H           8.6002    6.5313   30.0724 H       1  LIG1        0.0238
     88 H           9.6271    7.7204   30.3745 H       1  LIG1        0.0238
     89 H           9.8434    6.2853   31.0496 H       1  LIG1        0.0238
     90 C          11.8354    6.6599   29.3365 C.3     1  LIG1       -0.0560
     91 H          11.9206    7.6236   29.4897 H       1  LIG1        0.0238
     92 H          12.3892    6.4012   28.5693 H       1  LIG1        0.0238
     93 H          12.1347    6.1741   30.1328 H       1  LIG1        0.0238
     94 C          10.2985    4.8136   28.8277 C.3     1  LIG1       -0.0560
     95 H           9.3670    4.5659   28.6475 H       1  LIG1        0.0238
     96 H          10.6124    4.3436   29.6283 H       1  LIG1        0.0238
     97 H          10.8557    4.5611   28.0612 H       1  LIG1        0.0238
     98 O           8.4133    8.6043   24.1798 O.3     1  LIG1       -0.4913
     99 C           7.6239    9.7891   24.3173 C.3     1  LIG1        0.0910
    100 H           6.8986    9.6160   24.9697 H       1  LIG1        0.0697
    101 H           7.2035    9.9955   23.4453 H       1  LIG1        0.0697
    102 C           8.4209   11.0020   24.7786 C.3     1  LIG1       -0.0030
    103 H           8.8390   10.8083   25.6555 H       1  LIG1        0.0313
    104 H           9.1439   11.1893   24.1276 H       1  LIG1        0.0313
    105 C           7.5274   12.2197   24.9044 C.3     1  LIG1        0.0150
    106 H           6.7573   12.0133   25.4921 H       1  LIG1        0.0463
    107 H           8.0341   12.9674   25.3073 H       1  LIG1        0.0463
    108 N           7.0488   12.6032   23.5736 N.am    1  LIG1       -0.3112
    109 H           7.4378   12.2578   22.8626 H       1  LIG1        0.1490
    110 C           6.0410   13.4612   23.4048 C.2     1  LIG1        0.2441
    111 O           5.4861   14.0397   24.3284 O.2     1  LIG1       -0.2702
    112 C           6.5724    7.0522   25.8293 C.3     1  LIG1        0.0045
    113 H           6.0646    6.7806   26.6363 H       1  LIG1        0.0364
    114 H           6.1397    7.8586   25.4530 H       1  LIG1        0.0364
    115 C           6.5286    5.9319   24.8049 C.ar    1  LIG1       -0.0007
    116 C           6.1139    6.1576   23.4830 C.ar    1  LIG1        0.1274
    117 C           6.1643    5.1251   22.5488 C.ar    1  LIG1       -0.0007
    118 C           6.5141    3.8642   22.9638 C.ar    1  LIG1       -0.0511
    119 H           6.5174    3.1593   22.3260 H       1  LIG1        0.0624
    120 C           6.8683    3.5705   24.2910 C.ar    1  LIG1       -0.0412
    121 C           6.8840    4.6469   25.1751 C.ar    1  LIG1       -0.0511
    122 H           7.1519    4.4929   26.0749 H       1  LIG1        0.0624
    123 C           7.0421    2.1131   24.7342 C.3     1  LIG1       -0.0127
    124 C           7.7203    1.2685   23.6642 C.3     1  LIG1       -0.0560
    125 H           7.8211    0.3493   23.9890 H       1  LIG1        0.0238
    126 H           8.6025    1.6432   23.4631 H       1  LIG1        0.0238
    127 H           7.1721    1.2685   22.8519 H       1  LIG1        0.0238
    128 C           5.6251    1.5415   24.9509 C.3     1  LIG1       -0.0560
    129 H           5.6901    0.6080   25.2434 H       1  LIG1        0.0238
    130 H           5.1218    1.5892   24.1098 H       1  LIG1        0.0238
    131 H           5.1633    2.0670   25.6378 H       1  LIG1        0.0238
    132 C           7.8671    2.0194   26.0166 C.3     1  LIG1       -0.0560
    133 H           7.9669    1.0780   26.2738 H       1  LIG1        0.0238
    134 H           7.4109    2.5052   26.7358 H       1  LIG1        0.0238
    135 H           8.7516    2.4115   25.8652 H       1  LIG1        0.0238
    136 O           5.6330    7.4085   23.1085 O.3     1  LIG1       -0.4914
    137 C           4.1947    7.4410   23.1621 C.3     1  LIG1        0.0894
    138 H           3.8932    7.4156   24.1063 H       1  LIG1        0.0696
    139 H           3.8237    6.6504   22.6956 H       1  LIG1        0.0696
    140 C           3.7026    8.7079   22.4980 C.3     1  LIG1       -0.0215
    141 H           4.1421    8.7968   21.6153 H       1  LIG1        0.0295
    142 H           2.7285    8.6270   22.3402 H       1  LIG1        0.0295
    143 C           3.9582    9.9590   23.2908 C.3     1  LIG1       -0.0622
    144 H           3.6163   10.7337   22.7986 H       1  LIG1        0.0231
    145 H           4.9223   10.0621   23.4347 H       1  LIG1        0.0231
    146 H           3.5031    9.8954   24.1560 H       1  LIG1        0.0231
    147 C           5.3931   12.9622   19.6833 C.ar    1  LIG1        0.0384
    148 C           5.7585   12.7183   21.0081 C.ar    1  LIG1       -0.0375
    149 H           6.0982   11.8656   21.2529 H       1  LIG1        0.0633
    150 C           5.6274   13.7120   21.9693 C.ar    1  LIG1        0.0384
    151 C           5.0747   14.9376   21.6327 C.ar    1  LIG1       -0.0365
    152 H           4.9559   15.6108   22.2905 H       1  LIG1        0.0635
    153 C           4.6981   15.1615   20.3148 C.ar    1  LIG1        0.0148
    154 C           4.8483   14.1867   19.3287 C.ar    1  LIG1       -0.0365
    155 H           4.5826   14.3582   18.4315 H       1  LIG1        0.0635
    156 I           3.8683   17.0297   19.7952 I       1  LIG1       -0.0438
    157 O           4.3976   10.8210   15.2203 O.3     1  LIG1       -0.3982
    158 H           4.5232   11.1512   15.9939 H       1  LIG1        0.2090
    159 C           3.6499    9.6351   15.3610 C.3     1  LIG1        0.0330
    160 H           4.2575    8.8810   15.5035 H       1  LIG1        0.0521
    161 H           3.1242    9.4827   14.5476 H       1  LIG1        0.0521
    162 H           3.0457    9.7192   16.1289 H       1  LIG1        0.0521
    163 O           8.3985   11.0598   21.2984 O.3     2  HOH2       -0.4105
    164 H           9.1585   11.3878   21.1001 H       0  HOH0        0.2052
    165 H           8.5061   10.2542   21.5585 H       0  HOH0        0.2052
@<TRIPOS>BOND
     1   161   159    1
     2   157   159    1
     3   157   158    1
     4   159   160    1
     5   159   162    1
     6    19    17    1
     7    20    17    1
     8    18    17    1
     9    17    12    1
    10    33    32    1
    11    38    37    2
    12    23    21    1
    13    34    32    1
    14    22    21    1
    15    16    13    1
    16    32    29    1
    17    32    35    1
    18    12    21    1
    19    12    13    1
    20    12     9    1
    21    31    29    1
    22    21    24    1
    23   155   154    1
    24    14    13    1
    25    13    15    1
    26    37    35   am
    27    37   147    1
    28     8     7    1
    29    29    30    1
    30    29    26    1
    31    35    36    1
    32     9     7   ar
    33     9    10   ar
    34    58    57    1
    35     7     6   ar
    36    40    39    1
    37   154   147   ar
    38   154   153   ar
    39    55    54    1
    40    11    10    1
    41    10     4   ar
    42   147   148   ar
    43     6    39    1
    44     6     5   ar
    45    41    39    1
    46   156   153    1
    47    28    26    1
    48    39    42    1
    49    57    60    1
    50    57    54    1
    51    57    59    1
    52    26    27    1
    53    26    25    1
    54    56    54    1
    55    54    51    1
    56     5     4   ar
    57     5    25    1
    58     4     1    1
    59   153   151   ar
    60     3     1    1
    61     2     1    1
    62   148   149    1
    63   148   150   ar
    64     1   117    1
    65   164   163    1
    66    49    48    1
    67   163   165    1
    68    42    48   ar
    69    42    43   ar
    70    51    53    1
    71    51    50    1
    72    51    52    1
    73   141   140    1
    74   151   150   ar
    75   151   152    1
    76    68    66    1
    77    48    47   ar
    78    50    43    1
    79   150   110    1
    80    43    44   ar
    81   119   118    1
    82   142   140    1
    83    67    66    1
    84   140   137    1
    85   140   143    1
    86    66    69    1
    87    66    61    1
    88   117   118   ar
    89   117   116   ar
    90   139   137    1
    91   144   143    1
    92   127   124    1
    93   109   108    1
    94    65    62    1
    95   118   120   ar
    96    47    61    1
    97    47    45   ar
    98   136   137    1
    99   136   116    1
   100   137   138    1
   101   143   145    1
   102   143   146    1
   103   110   108   am
   104   110   111    2
   105   101    99    1
   106   126   124    1
   107   116   115   ar
   108    61    62    1
   109    61    70    1
   110    44    45   ar
   111    44    74    1
   112   108   105    1
   113   124   125    1
   114   124   123    1
   115    62    64    1
   116    62    63    1
   117    45    46    1
   118   130   128    1
   119   104   102    1
   120    98    99    1
   121    98    78    1
   122    76    74    1
   123   120   123    1
   124   120   121   ar
   125    99   102    1
   126    99   100    1
   127    71    70    1
   128    74    75    1
   129    74    77    1
   130   123   128    1
   131   123   132    1
   132    70    72    1
   133    70    73    1
   134   102   105    1
   135   102   103    1
   136   115   121   ar
   137   115   112    1
   138   105   107    1
   139   105   106    1
   140   128   129    1
   141   128   131    1
   142   121   122    1
   143    78    77   ar
   144    78    79   ar
   145   114   112    1
   146    77    83   ar
   147   112    79    1
   148   112   113    1
   149   135   132    1
   150   132   133    1
   151   132   134    1
   152    79    80   ar
   153    83    84    1
   154    83    82   ar
   155    80    82   ar
   156    80    81    1
   157    82    85    1
   158    97    94    1
   159    92    90    1
   160    95    94    1
   161    94    85    1
   162    94    96    1
   163    85    90    1
   164    85    86    1
   165    90    91    1
   166    90    93    1
   167    87    86    1
   168    86    88    1
   169    86    89    1
