@<TRIPOS>MOLECULE
?
 45 48 0 0 0
SMALL
GASTEIGER

@<TRIPOS>ATOM
      1 O           9.4402    5.0100    6.5541 O.3     1  LIG1       -0.4912
      2 O           6.5830    4.3652    3.5681 O.3     1  LIG1       -0.2761
      3 O           8.8267    2.7593    1.4385 O.2     1  LIG1       -0.2732
      4 O           8.3747    3.4730   -1.8904 O.2     1  LIG1       -0.2507
      5 O           7.4651    4.9908   -0.5280 O.3     1  LIG1       -0.4804
      6 H           8.1283    5.5346   -0.9846 H       1  LIG1        0.2951
      7 N           7.7070    3.5907    3.1820 N.am    1  LIG1       -0.1726
      8 C           9.6878    3.6956    6.2365 C.ar    1  LIG1        0.1255
      9 C          10.2741    2.8827    7.2097 C.ar    1  LIG1       -0.0196
     10 H          10.5288    3.2511    8.0478 H       1  LIG1        0.0654
     11 C          10.4818    1.5515    6.9555 C.ar    1  LIG1       -0.0583
     12 H          10.8717    0.9996    7.6230 H       1  LIG1        0.0619
     13 C          10.1282    1.0044    5.7339 C.ar    1  LIG1       -0.0612
     14 H          10.2519    0.0769    5.5701 H       1  LIG1        0.0618
     15 C           9.5935    1.8206    4.7549 C.ar    1  LIG1       -0.0532
     16 H           9.3746    1.4505    3.9077 H       1  LIG1        0.0622
     17 C           9.3683    3.1806    4.9899 C.ar    1  LIG1        0.0174
     18 C           8.9022    4.1025    3.8828 C.3     1  LIG1        0.0894
     19 H           9.6427    4.2042    3.2184 H       1  LIG1        0.0581
     20 C           8.4687    5.5050    4.3588 C.3     1  LIG1        0.0439
     21 H           9.1302    6.1970    4.0680 H       1  LIG1        0.0379
     22 C           8.2910    5.5314    5.8632 C.3     1  LIG1        0.0967
     23 H           8.1303    6.4629    6.1552 H       1  LIG1        0.0701
     24 H           7.4942    4.9948    6.1060 H       1  LIG1        0.0701
     25 C           7.1380    5.6988    3.6455 C.3     1  LIG1        0.0816
     26 H           6.5446    6.2995    4.1619 H       1  LIG1        0.0588
     27 H           7.2738    6.0785    2.7410 H       1  LIG1        0.0588
     28 C           7.7510    3.1486    1.8941 C.2     1  LIG1        0.2426
     29 C           6.4361    3.0797    1.1418 C.3     1  LIG1        0.0506
     30 H           5.9906    3.9720    1.2182 H       1  LIG1        0.0403
     31 C           5.5058    2.0312    1.7792 C.3     1  LIG1       -0.0411
     32 H           5.4511    2.1898    2.7547 H       1  LIG1        0.0273
     33 H           4.5957    2.1273    1.4014 H       1  LIG1        0.0273
     34 C           6.0084    0.6207    1.5262 C.3     1  LIG1       -0.0523
     35 H           6.9017    0.5078    1.9384 H       1  LIG1        0.0265
     36 H           5.3920   -0.0312    1.9453 H       1  LIG1        0.0265
     37 C           6.0982    0.3500    0.0424 C.3     1  LIG1       -0.0523
     38 H           5.1954    0.4181   -0.3584 H       1  LIG1        0.0265
     39 H           6.4276   -0.5719   -0.1030 H       1  LIG1        0.0265
     40 C           7.0276    1.3288   -0.6503 C.3     1  LIG1       -0.0394
     41 H           6.9929    1.1766   -1.6281 H       1  LIG1        0.0273
     42 H           7.9576    1.1654   -0.3504 H       1  LIG1        0.0273
     43 C           6.6483    2.7833   -0.3507 C.3     1  LIG1        0.0674
     44 H           5.7612    2.9299   -0.7877 H       1  LIG1        0.0421
     45 C           7.6014    3.7581   -1.0087 C.2     1  LIG1        0.3086
@<TRIPOS>BOND
     1     4    45    2
     2    41    40    1
     3    45     5    1
     4    45    43    1
     5     6     5    1
     6    44    43    1
     7    40    43    1
     8    40    42    1
     9    40    37    1
    10    38    37    1
    11    43    29    1
    12    39    37    1
    13    37    34    1
    14    29    30    1
    15    29    31    1
    16    29    28    1
    17    33    31    1
    18     3    28    2
    19    34    31    1
    20    34    35    1
    21    34    36    1
    22    31    32    1
    23    28     7   am
    24    27    25    1
    25     7     2    1
    26     7    18    1
    27    19    18    1
    28     2    25    1
    29    25    26    1
    30    25    20    1
    31    18    20    1
    32    18    17    1
    33    16    15    1
    34    21    20    1
    35    20    22    1
    36    15    17   ar
    37    15    13   ar
    38    17     8   ar
    39    14    13    1
    40    13    11   ar
    41    22    24    1
    42    22    23    1
    43    22     1    1
    44     8     1    1
    45     8     9   ar
    46    11     9   ar
    47    11    12    1
    48     9    10    1
