@<TRIPOS>MOLECULE
?
 36 36 0 0 0
SMALL
GASTEIGER

@<TRIPOS>ATOM
      1 P           2.9060    1.6131    1.5834 P.3     1  LIG1        0.3435
      2 O           5.5791    2.2142    3.1010 O.3     1  LIG1       -0.4595
      3 O           5.6259    4.0478    1.8313 O.2     1  LIG1       -0.2502
      4 O           2.2294    2.6725    2.3385 O.2     1  LIG1       -0.2579
      5 O           3.1915    0.2743    2.3394 O.3     1  LIG1       -0.3078
      6 O           2.1202    1.1218    0.3119 O.3     1  LIG1       -0.3078
      7 N           6.9690    0.4848    7.5772 N.ar    1  LIG1       -0.2534
      8 C           6.6959   -0.0700    6.3846 C.ar    1  LIG1        0.0895
      9 C           6.4448    0.6835    5.2435 C.ar    1  LIG1       -0.0278
     10 H           6.2453    0.2551    4.4310 H       1  LIG1        0.0643
     11 C           6.4907    2.0649    5.3072 C.ar    1  LIG1       -0.0068
     12 C           6.7664    2.6407    6.5510 C.ar    1  LIG1       -0.0372
     13 H           6.7971    3.5749    6.6472 H       1  LIG1        0.0636
     14 C           6.9933    1.8198    7.6356 C.ar    1  LIG1        0.0287
     15 H           7.1760    2.2224    8.4652 H       1  LIG1        0.0830
     16 C           6.3049    2.9429    4.1139 C.3     1  LIG1        0.1176
     17 H           5.8053    3.7478    4.3674 H       1  LIG1        0.0749
     18 H           7.1769    3.2202    3.7644 H       1  LIG1        0.0749
     19 C           5.3018    2.9050    1.9900 C.2     1  LIG1        0.3192
     20 C           4.5382    2.0805    0.9949 C.3     1  LIG1        0.1466
     21 H           5.0496    1.2689    0.7938 H       1  LIG1        0.0503
     22 H           4.4445    2.5894    0.1628 H       1  LIG1        0.0503
     23 C           2.3603   -0.2840    3.3420 C.3     1  LIG1        0.0541
     24 H           1.8007    0.4326    3.7084 H       1  LIG1        0.0562
     25 H           1.7617   -0.9324    2.9159 H       1  LIG1        0.0562
     26 C           2.9865   -0.9001    4.3738 C.3     1  LIG1       -0.0411
     27 H           2.3384   -1.4033    4.8916 H       1  LIG1        0.0252
     28 H           3.4070   -0.2343    4.9399 H       1  LIG1        0.0252
     29 H           3.6622   -1.5038    4.0278 H       1  LIG1        0.0252
     30 C           1.5273    2.1078   -0.5903 C.3     1  LIG1        0.0541
     31 H           2.2350    2.5995   -1.0559 H       1  LIG1        0.0562
     32 H           0.9944    2.7497   -0.0763 H       1  LIG1        0.0562
     33 C           0.6685    1.4190   -1.5712 C.3     1  LIG1       -0.0411
     34 H           0.2719    2.0722   -2.1691 H       1  LIG1        0.0252
     35 H          -0.0337    0.9383   -1.1055 H       1  LIG1        0.0252
     36 H           1.2026    0.7938   -2.0864 H       1  LIG1        0.0252
@<TRIPOS>BOND
     1    34    33    1
     2    36    33    1
     3    33    35    1
     4    33    30    1
     5    31    30    1
     6    30    32    1
     7    30     6    1
     8    22    20    1
     9     6     1    1
    10    21    20    1
    11    20     1    1
    12    20    19    1
    13     1     4    2
    14     1     5    1
    15     3    19    2
    16    19     2    1
    17     5    23    1
    18    25    23    1
    19     2    16    1
    20    23    24    1
    21    23    26    1
    22    18    16    1
    23    29    26    1
    24    16    17    1
    25    16    11    1
    26    26    27    1
    27    26    28    1
    28    10     9    1
    29     9    11   ar
    30     9     8   ar
    31    11    12   ar
    32     8     7   ar
    33    12    13    1
    34    12    14   ar
    35     7    14   ar
    36    14    15    1
