@<TRIPOS>MOLECULE
?
 47 50 0 0 0
SMALL
GASTEIGER

@<TRIPOS>ATOM
      1 C           2.3771    9.1208    8.7895 C.2     1  LIG1       -0.0815
      2 H           2.4485    9.9737    8.3768 H       1  LIG1        0.0573
      3 C           1.1622    8.6473    9.0257 C.2     1  LIG1       -0.0875
      4 H           0.4166    9.1556    8.7301 H       1  LIG1        0.0569
      5 C           0.9030    7.3599    9.7312 C.3     1  LIG1       -0.0325
      6 H           0.6713    6.6629    9.0680 H       1  LIG1        0.0308
      7 H           0.1308    7.4700   10.3415 H       1  LIG1        0.0308
      8 C           2.1202    6.9094   10.5333 C.3     1  LIG1       -0.0232
      9 H           1.9795    5.9793   10.8406 H       1  LIG1        0.0292
     10 H           2.2106    7.4837   11.3346 H       1  LIG1        0.0292
     11 C           3.4299    6.9785    9.7102 C.3     1  LIG1        0.0703
     12 C           3.6483    8.3986    9.1318 C.3     1  LIG1        0.0173
     13 H           4.1612    8.2909    8.2796 H       1  LIG1        0.0377
     14 C           4.5876    9.1135   10.1372 C.3     1  LIG1        0.0621
     15 H           5.2729    9.6333    9.6273 H       1  LIG1        0.0443
     16 O           6.2952    8.0226   11.5287 O.2     1  LIG1       -0.2749
     17 C           5.2754    7.9489   10.8479 C.2     1  LIG1        0.2238
     18 N           4.5735    6.8315   10.6119 N.am    1  LIG1       -0.2903
     19 C           4.8970    5.5090   11.1242 C.3     1  LIG1        0.0196
     20 H           4.1211    5.1392   11.6149 H       1  LIG1        0.0468
     21 H           5.6606    5.5689   11.7506 H       1  LIG1        0.0468
     22 C           5.2527    4.6010    9.9643 C.3     1  LIG1       -0.0113
     23 H           5.2374    3.6609   10.2723 H       1  LIG1        0.0328
     24 H           6.1734    4.8057    9.6631 H       1  LIG1        0.0328
     25 C           4.3007    4.7559    8.7939 C.ar    1  LIG1       -0.0370
     26 C           4.2905    3.7722    7.7959 C.ar    1  LIG1       -0.0127
     27 H           4.8313    2.9979    7.9007 H       1  LIG1        0.0658
     28 C           3.5113    3.9037    6.6619 C.ar    1  LIG1        0.1618
     29 C           2.7412    5.0703    6.4931 C.ar    1  LIG1        0.1618
     30 C           2.7351    6.0331    7.4722 C.ar    1  LIG1       -0.0108
     31 H           2.2063    6.8139    7.3542 H       1  LIG1        0.0659
     32 C           3.4949    5.8880    8.6470 C.ar    1  LIG1       -0.0164
     33 O           3.4310    3.0020    5.6394 O.3     1  LIG1       -0.4914
     34 C           4.1450    1.7787    5.7917 C.3     1  LIG1        0.0790
     35 H           4.0081    1.2189    4.9992 H       1  LIG1        0.0660
     36 H           3.8174    1.3054    6.5850 H       1  LIG1        0.0660
     37 H           5.1011    1.9698    5.8964 H       1  LIG1        0.0660
     38 O           2.0439    5.1580    5.3104 O.3     1  LIG1       -0.4914
     39 C           1.5330    6.4422    4.9729 C.3     1  LIG1        0.0790
     40 H           1.0568    6.3897    4.1174 H       1  LIG1        0.0660
     41 H           2.2737    7.0788    4.8956 H       1  LIG1        0.0660
     42 H           0.9160    6.7425    5.6724 H       1  LIG1        0.0660
     43 C           3.9229   10.0276   11.1366 C.2     1  LIG1       -0.0787
     44 H           2.9761    9.9834   11.2054 H       1  LIG1        0.0574
     45 C           4.5305   10.8628   11.9039 C.2     1  LIG1       -0.1019
     46 H           5.4764   10.9401   11.8671 H       1  LIG1        0.0532
     47 H           4.0325   11.4027   12.5070 H       1  LIG1        0.0532
@<TRIPOS>BOND
     1    40    39    1
     2    41    39    1
     3    39    38    1
     4    39    42    1
     5    35    34    1
     6    38    29    1
     7    33    34    1
     8    33    28    1
     9    34    37    1
    10    34    36    1
    11    29    28   ar
    12    29    30   ar
    13    28    26   ar
    14    31    30    1
    15    30    32   ar
    16    26    27    1
    17    26    25   ar
    18    13    12    1
    19     2     1    1
    20    32    25   ar
    21    32    11    1
    22     4     3    1
    23     1     3    2
    24     1    12    1
    25    25    22    1
    26     3     5    1
    27     6     5    1
    28    12    11    1
    29    12    14    1
    30    15    14    1
    31    24    22    1
    32    11     8    1
    33    11    18    1
    34     5     7    1
    35     5     8    1
    36    22    23    1
    37    22    19    1
    38    14    17    1
    39    14    43    1
    40     8     9    1
    41     8    10    1
    42    18    17   am
    43    18    19    1
    44    17    16    2
    45    19    20    1
    46    19    21    1
    47    43    44    1
    48    43    45    2
    49    46    45    1
    50    45    47    1
