@<TRIPOS>MOLECULE
?
 43 43 0 0 0
SMALL
GASTEIGER

@<TRIPOS>ATOM
      1 C          -1.0738    3.2825    3.4509 C.3     1  LIG1       -0.0268
      2 H          -1.3899    3.1049    2.5506 H       1  LIG1        0.0818
      3 H          -1.0646    2.4477    3.9450 H       1  LIG1        0.0818
      4 C          -1.9702    4.2826    4.1320 C.3     1  LIG1        0.0139
      5 H          -2.5345    4.7377    3.4869 H       1  LIG1        0.0364
      6 H          -2.5332    3.8499    4.7912 H       1  LIG1        0.0364
      7 C          -1.0287    5.2370    4.7807 C.2     1  LIG1       -0.0210
      8 C          -1.1351    5.8409    5.9540 C.2     1  LIG1       -0.0793
      9 H          -1.9117    5.7102    6.4486 H       1  LIG1        0.0574
     10 C          -0.0754    6.7196    6.5246 C.3     1  LIG1       -0.0341
     11 H           0.3360    6.2753    7.2828 H       1  LIG1        0.0307
     12 H          -0.4779    7.5422    6.8417 H       1  LIG1        0.0307
     13 C           0.9923    7.0472    5.4954 C.3     1  LIG1       -0.0442
     14 H           1.7715    7.4069    5.9475 H       1  LIG1        0.0270
     15 H           0.6562    7.7296    4.8932 H       1  LIG1        0.0270
     16 C           1.4063    5.8217    4.6842 C.3     1  LIG1       -0.0053
     17 H           2.1141    6.0582    4.0640 H       1  LIG1        0.0323
     18 H           1.7381    5.1288    5.2763 H       1  LIG1        0.0323
     19 C           0.2005    5.3172    3.9227 C.3     1  LIG1        0.0017
     20 H           0.0248    5.9154    3.1668 H       1  LIG1        0.0901
     21 N           0.3247    3.8881    3.4095 N.4     1  LIG1        0.2459
     22 H           0.7805    3.4678    3.9810 H       1  LIG1        0.2046
     23 CL          1.6404    1.9843    5.5078 Cl      2  LIG2        0.0000
     24 C           0.9680    3.7345    2.0446 C.3     1  LIG1        0.0027
     25 H           0.3629    4.1369    1.3873 H       1  LIG1        0.0901
     26 C           1.1131    2.2606    1.6914 C.3     1  LIG1       -0.0172
     27 H           1.5105    2.1770    0.8212 H       1  LIG1        0.0288
     28 H           0.2473    1.8454    1.6874 H       1  LIG1        0.0288
     29 H           1.6715    1.8290    2.3416 H       1  LIG1        0.0288
     30 C           2.2879    4.4700    1.9589 C.ar    1  LIG1       -0.0001
     31 C           2.3937    5.5793    1.1473 C.ar    1  LIG1       -0.0533
     32 H           1.6490    5.8738    0.6752 H       1  LIG1        0.0622
     33 C           3.5813    6.2564    1.0233 C.ar    1  LIG1       -0.0613
     34 H           3.6338    7.0084    0.4781 H       1  LIG1        0.0618
     35 C           4.6947    5.8202    1.7074 C.ar    1  LIG1       -0.0617
     36 H           5.5020    6.2723    1.6194 H       1  LIG1        0.0618
     37 C           4.6102    4.7210    2.5156 C.ar    1  LIG1       -0.0613
     38 H           5.3643    4.4284    2.9747 H       1  LIG1        0.0618
     39 C           3.4081    4.0349    2.6557 C.ar    1  LIG1       -0.0533
     40 H           3.3551    3.2908    3.2118 H       1  LIG1        0.0622
     41 O           3.7894    0.5750    3.4619 O.3     3  HOH3       -0.4105
     42 H           3.1718    0.9993    4.0750 H       0  HOH0        0.2052
     43 H           4.3443   -0.0357    3.9430 H       0  HOH0        0.2052
@<TRIPOS>BOND
     1    34    33    1
     2    32    31    1
     3    27    26    1
     4    33    31   ar
     5    33    35   ar
     6    31    30   ar
     7    25    24    1
     8    36    35    1
     9    28    26    1
    10    26    24    1
    11    26    29    1
    12    35    37   ar
    13    30    24    1
    14    30    39   ar
    15    24    21    1
    16    37    39   ar
    17    37    38    1
    18     2     1    1
    19    39    40    1
    20    20    19    1
    21    21     1    1
    22    21    19    1
    23    21    22    1
    24     1     3    1
    25     1     4    1
    26    41    43    1
    27    41    42    1
    28     5     4    1
    29    19    16    1
    30    19     7    1
    31    17    16    1
    32     4     7    1
    33     4     6    1
    34    16    18    1
    35    16    13    1
    36     7     8    2
    37    15    13    1
    38    13    14    1
    39    13    10    1
    40     8     9    1
    41     8    10    1
    42    10    12    1
    43    10    11    1
