@<TRIPOS>MOLECULE
?
 60 69 0 0 0
SMALL
GASTEIGER

@<TRIPOS>ATOM
      1 C           8.2118    5.9599    3.4681 C.ar    1  LIG1       -0.0574
      2 H           8.9638    6.0318    2.8925 H       1  LIG1        0.0621
      3 C           7.4303    7.0885    3.7000 C.ar    1  LIG1       -0.0306
      4 C           7.9252    4.7368    4.0521 C.ar    1  LIG1       -0.0614
      5 H           8.4765    3.9803    3.8886 H       1  LIG1        0.0618
      6 C           6.8234    4.6434    4.8738 C.ar    1  LIG1       -0.0612
      7 H           6.5781    3.8022    5.2415 H       1  LIG1        0.0618
      8 C           6.0732    5.7659    5.1671 C.ar    1  LIG1       -0.0537
      9 H           5.3222    5.6824    5.7429 H       1  LIG1        0.0624
     10 C           6.3932    7.0234    4.6366 C.ar    1  LIG1       -0.0138
     11 C           4.9550    8.2345    6.3013 C.ar    1  LIG1       -0.0537
     12 H           4.6960    7.3937    6.6596 H       1  LIG1        0.0624
     13 C           5.7717    8.2712    5.1574 C.ar    1  LIG1       -0.0138
     14 C           4.5212    9.3911    6.9158 C.ar    1  LIG1       -0.0612
     15 H           3.9559    9.3376    7.6779 H       1  LIG1        0.0618
     16 C           4.9023   10.6217    6.4325 C.ar    1  LIG1       -0.0614
     17 H           4.6264   11.4195    6.8694 H       1  LIG1        0.0618
     18 C           5.6944   10.6776    5.2987 C.ar    1  LIG1       -0.0574
     19 H           5.9583   11.5257    4.9599 H       1  LIG1        0.0621
     20 C           6.1144    9.5275    4.6440 C.ar    1  LIG1       -0.0306
     21 C           6.9795    9.6443    3.4280 C.3     1  LIG1        0.0350
     22 C           7.6999    8.3404    2.9403 C.3     1  LIG1        0.0350
     23 C           7.3967    8.2945    1.3613 C.3     1  LIG1        0.0760
     24 C           6.0133    8.9540    1.3505 C.2     1  LIG1        0.1573
     25 C           6.2993   10.2472    2.1113 C.3     1  LIG1        0.0760
     26 C           7.5513   10.7733    1.3751 C.3     1  LIG1        0.0458
     27 H           7.3416   11.4165    0.6383 H       1  LIG1        0.0398
     28 C           8.2919    9.4531    0.8751 C.3     1  LIG1        0.0458
     29 H           8.4473    9.4412   -0.1126 H       1  LIG1        0.0398
     30 C           9.5666    9.2520    1.6831 C.2     1  LIG1        0.1430
     31 C           9.0831    9.0415    3.0925 C.3     1  LIG1        0.0399
     32 H           9.7300    8.6215    3.7285 H       1  LIG1        0.0394
     33 C           8.3557   10.3572    3.5879 C.3     1  LIG1        0.0399
     34 H           8.5907   10.6838    4.5038 H       1  LIG1        0.0394
     35 C           8.4186   11.3680    2.4684 C.2     1  LIG1        0.1430
     36 C           7.5454    6.9888    0.6368 C.ar    1  LIG1       -0.0325
     37 C           8.6018    6.7543   -0.2350 C.ar    1  LIG1       -0.0576
     38 H           9.2541    7.4313   -0.3744 H       1  LIG1        0.0621
     39 C           8.7152    5.5501   -0.9012 C.ar    1  LIG1       -0.0615
     40 H           9.4381    5.4132   -1.5020 H       1  LIG1        0.0618
     41 C           7.7926    4.5429   -0.7046 C.ar    1  LIG1       -0.0617
     42 H           7.8816    3.7116   -1.1552 H       1  LIG1        0.0618
     43 C           6.7357    4.7629    0.1612 C.ar    1  LIG1       -0.0615
     44 H           6.0920    4.0790    0.3026 H       1  LIG1        0.0618
     45 C           6.6091    5.9688    0.8204 C.ar    1  LIG1       -0.0576
     46 H           5.8747    6.1067    1.4070 H       1  LIG1        0.0621
     47 C           5.1732   11.2326    2.3049 C.ar    1  LIG1       -0.0325
     48 C           3.8538   10.7919    2.4206 C.ar    1  LIG1       -0.0576
     49 H           3.6571    9.8682    2.3226 H       1  LIG1        0.0621
     50 C           2.8261   11.6893    2.6768 C.ar    1  LIG1       -0.0615
     51 H           1.9315   11.3776    2.7489 H       1  LIG1        0.0618
     52 C           3.1015   13.0279    2.8268 C.ar    1  LIG1       -0.0617
     53 H           2.3990   13.6383    3.0184 H       1  LIG1        0.0618
     54 C           4.3976   13.4861    2.7003 C.ar    1  LIG1       -0.0615
     55 H           4.5889   14.4104    2.7997 H       1  LIG1        0.0618
     56 C           5.4196   12.5888    2.4271 C.ar    1  LIG1       -0.0576
     57 H           6.3068   12.9130    2.3215 H       1  LIG1        0.0621
     58 O           4.9901    8.5406    0.8687 O.2     1  LIG1       -0.2954
     59 O          10.7058    9.2567    1.2766 O.2     1  LIG1       -0.2967
     60 O           9.0640   12.3969    2.4354 O.2     1  LIG1       -0.2967
@<TRIPOS>BOND
     1    40    39    1
     2    42    41    1
     3    39    41   ar
     4    39    37   ar
     5    41    43   ar
     6    38    37    1
     7    37    36   ar
     8    29    28    1
     9    43    44    1
    10    43    45   ar
    11    36    45   ar
    12    36    23    1
    13    27    26    1
    14    45    46    1
    15    58    24    2
    16    28    23    1
    17    28    26    1
    18    28    30    1
    19    59    30    2
    20    24    23    1
    21    24    25    1
    22    23    22    1
    23    26    25    1
    24    26    35    1
    25    30    31    1
    26    25    47    1
    27    25    21    1
    28    47    48   ar
    29    47    56   ar
    30    57    56    1
    31    49    48    1
    32    48    50   ar
    33    56    54   ar
    34    60    35    2
    35    35    33    1
    36    50    51    1
    37    50    52   ar
    38    54    55    1
    39    54    52   ar
    40    52    53    1
    41     2     1    1
    42    22    31    1
    43    22    21    1
    44    22     3    1
    45    31    33    1
    46    31    32    1
    47    21    33    1
    48    21    20    1
    49     1     3   ar
    50     1     4   ar
    51    33    34    1
    52     3    10   ar
    53     5     4    1
    54     4     6   ar
    55    10    13    1
    56    10     8   ar
    57    20    13   ar
    58    20    18   ar
    59     6     8   ar
    60     6     7    1
    61    19    18    1
    62    13    11   ar
    63     8     9    1
    64    18    16   ar
    65    11    12    1
    66    11    14   ar
    67    16    17    1
    68    16    14   ar
    69    14    15    1
