@<TRIPOS>MOLECULE
3-Iodo-4-phenyl-2-trifluoromethyl-1-aza-spiro[4.5]deca-1,3,6,9-tetraen-8-one
 31 33 0 0 0
SMALL
GASTEIGER

@<TRIPOS>ATOM
      1 C          -0.2916   12.0526   10.0515 C.3     1  LIG1        0.1259
      2 C           0.5650   13.7367   11.2054 C.2     1  LIG1        0.1534
      3 C          -0.1830   12.9364   12.1790 C.2     1  LIG1        0.0496
      4 C          -0.7455   11.9209   11.5088 C.2     1  LIG1        0.0098
      5 C          -1.4438   12.1779    9.0975 C.2     1  LIG1       -0.0450
      6 H          -2.1526   12.7360    9.3228 H       1  LIG1        0.0604
      7 C          -1.4889   11.5269    7.9505 C.2     1  LIG1       -0.0160
      8 H          -2.2369   11.6238    7.4065 H       1  LIG1        0.0653
      9 C          -0.4003   10.6580    7.5104 C.2     1  LIG1        0.1786
     10 C           0.6421   10.3589    8.4893 C.2     1  LIG1       -0.0160
     11 H           1.2859    9.7192    8.2871 H       1  LIG1        0.0653
     12 C           0.6900   10.9765    9.6517 C.2     1  LIG1       -0.0450
     13 H           1.3581   10.7389   10.2536 H       1  LIG1        0.0604
     14 C          -1.6814   10.8640   11.9395 C.ar    1  LIG1       -0.0179
     15 C          -2.6633   11.1221   12.8857 C.ar    1  LIG1       -0.0542
     16 H          -2.7049   11.9601   13.2875 H       1  LIG1        0.0624
     17 C          -3.5804   10.1491   13.2401 C.ar    1  LIG1       -0.0612
     18 H          -4.2298   10.3362   13.8793 H       1  LIG1        0.0618
     19 C          -3.5368    8.9074   12.6511 C.ar    1  LIG1       -0.0617
     20 H          -4.1518    8.2523   12.8925 H       1  LIG1        0.0618
     21 C          -2.5763    8.6396   11.7002 C.ar    1  LIG1       -0.0612
     22 H          -2.5429    7.8016   11.2980 H       1  LIG1        0.0618
     23 C          -1.6633    9.6100   11.3411 C.ar    1  LIG1       -0.0542
     24 H          -1.0269    9.4217   10.6903 H       1  LIG1        0.0624
     25 C           1.3982   14.9599   11.4962 C.3     1  LIG1        0.4349
     26 F           1.8644   15.5093   10.3954 F       1  LIG1       -0.1644
     27 F           2.4368   14.6462   12.2680 F       1  LIG1       -0.1644
     28 F           0.7150   15.8882   12.1452 F       1  LIG1       -0.1644
     29 I          -0.2453   13.3649   14.2221 I       1  LIG1       -0.0413
     30 N           0.5118   13.3039   10.0064 N.2     1  LIG1       -0.2588
     31 O          -0.3493   10.2115    6.3689 O.2     1  LIG1       -0.2879
@<TRIPOS>BOND
     1    31     9    2
     2     8     7    1
     3     9     7    1
     4     9    10    1
     5     7     5    2
     6    11    10    1
     7    10    12    2
     8     5     6    1
     9     5     1    1
    10    12     1    1
    11    12    13    1
    12    30     1    1
    13    30     2    2
    14     1     4    1
    15    26    25    1
    16    24    23    1
    17     2    25    1
    18     2     3    1
    19    22    21    1
    20    23    21   ar
    21    23    14   ar
    22    25    28    1
    23    25    27    1
    24     4    14    1
    25     4     3    2
    26    21    19   ar
    27    14    15   ar
    28     3    29    1
    29    19    20    1
    30    19    17   ar
    31    15    17   ar
    32    15    16    1
    33    17    18    1
