@<TRIPOS>MOLECULE
?
 48 50 0 0 0
SMALL
GASTEIGER

@<TRIPOS>ATOM
      1 C           0.3949   -2.2653   16.9738 C.2     1  LIG1        0.0736
      2 N           0.7371   -1.0318   16.8886 N.2     1  LIG1       -0.2678
      3 C           1.3383   -3.4305   17.1010 C.ar    1  LIG1        0.0005
      4 C           1.6461   -4.2045   15.9977 C.ar    1  LIG1       -0.0526
      5 H           1.2924   -3.9760   15.1460 H       1  LIG1        0.0624
      6 C           2.4679   -5.3107   16.1300 C.ar    1  LIG1       -0.0611
      7 H           2.6835   -5.8352   15.3680 H       1  LIG1        0.0618
      8 C           2.9744   -5.6522   17.3669 C.ar    1  LIG1       -0.0617
      9 H           3.5236   -6.4218   17.4592 H       1  LIG1        0.0618
     10 C           2.6825   -4.8746   18.4714 C.ar    1  LIG1       -0.0611
     11 H           3.0427   -5.1004   19.3206 H       1  LIG1        0.0618
     12 C           1.8645   -3.7667   18.3379 C.ar    1  LIG1       -0.0526
     13 H           1.6628   -3.2336   19.0985 H       1  LIG1        0.0624
     14 C          -1.0570   -2.5818   16.9270 C.ar    1  LIG1        0.0005
     15 C          -1.9759   -1.5933   16.5538 C.ar    1  LIG1       -0.0526
     16 H          -1.6674   -0.7218   16.3373 H       1  LIG1        0.0624
     17 C          -3.3249   -1.8749   16.4982 C.ar    1  LIG1       -0.0611
     18 H          -3.9381   -1.1937   16.2485 H       1  LIG1        0.0618
     19 C          -3.7930   -3.1426   16.8035 C.ar    1  LIG1       -0.0617
     20 H          -4.7221   -3.3353   16.7602 H       1  LIG1        0.0618
     21 C          -2.8916   -4.1239   17.1725 C.ar    1  LIG1       -0.0611
     22 H          -3.2039   -4.9954   17.3858 H       1  LIG1        0.0618
     23 C          -1.5388   -3.8447   17.2321 C.ar    1  LIG1       -0.0526
     24 H          -0.9304   -4.5290   17.4862 H       1  LIG1        0.0624
     25 C           2.1392   -0.6719   16.7830 C.3     1  LIG1        0.1518
     26 H           2.7212   -1.4642   16.9649 H       1  LIG1        0.0664
     27 C           2.3931   -0.1211   15.3476 C.3     1  LIG1        0.0052
     28 H           1.8332    0.6829   15.2039 H       1  LIG1        0.0339
     29 H           3.3421    0.1504   15.2657 H       1  LIG1        0.0339
     30 C           2.0759   -1.1449   14.2831 C.ar    1  LIG1       -0.0446
     31 C           0.7728   -1.3166   13.8422 C.ar    1  LIG1       -0.0550
     32 H           0.0847   -0.7716   14.2076 H       1  LIG1        0.0621
     33 C           0.4491   -2.2608   12.8853 C.ar    1  LIG1       -0.0199
     34 H          -0.4523   -2.3603   12.6011 H       1  LIG1        0.0654
     35 C           1.4375   -3.0588   12.3425 C.ar    1  LIG1        0.1169
     36 O           1.1933   -3.9867   11.3730 O.3     1  LIG1       -0.5068
     37 H           0.3685   -4.1394   11.3325 H       1  LIG1        0.2921
     38 C           2.7544   -2.9055   12.7727 C.ar    1  LIG1       -0.0199
     39 H           3.4398   -3.4522   12.4080 H       1  LIG1        0.0654
     40 C           3.0633   -1.9579   13.7304 C.ar    1  LIG1       -0.0550
     41 H           3.9639   -1.8592   14.0164 H       1  LIG1        0.0621
     42 C           2.4256    0.4410   17.7720 C.2     1  LIG1        0.3319
     43 O           1.6132    1.2226   18.1920 O.2     1  LIG1       -0.2484
     44 O           3.7170    0.4603   18.0902 O.3     1  LIG1       -0.4664
     45 C           4.1242    1.4824   19.0387 C.3     1  LIG1        0.0817
     46 H           3.6295    1.3668   19.8767 H       1  LIG1        0.0661
     47 H           3.9335    2.3689   18.6660 H       1  LIG1        0.0661
     48 H           5.0859    1.4014   19.2125 H       1  LIG1        0.0661
@<TRIPOS>BOND
     1    37    36    1
     2    36    35    1
     3    35    38   ar
     4    35    33   ar
     5    39    38    1
     6    34    33    1
     7    38    40   ar
     8    33    31   ar
     9    40    41    1
    10    40    30   ar
    11    31    32    1
    12    31    30   ar
    13    30    27    1
    14     5     4    1
    15    28    27    1
    16    29    27    1
    17    27    25    1
    18     7     6    1
    19     4     6   ar
    20     4     3   ar
    21     6     8   ar
    22    18    17    1
    23    16    15    1
    24    17    15   ar
    25    17    19   ar
    26    15    14   ar
    27    20    19    1
    28    25     2    1
    29    25    26    1
    30    25    42    1
    31    19    21   ar
    32     2     1    2
    33    14     1    1
    34    14    23   ar
    35     1     3    1
    36     3    12   ar
    37    21    23   ar
    38    21    22    1
    39    23    24    1
    40     8     9    1
    41     8    10   ar
    42    42    44    1
    43    42    43    2
    44    44    45    1
    45    12    10   ar
    46    12    13    1
    47    10    11    1
    48    47    45    1
    49    45    48    1
    50    45    46    1
