@<TRIPOS>MOLECULE
?
 45 47 0 0 0
SMALL
GASTEIGER

@<TRIPOS>ATOM
      1 C           2.9740    6.6482    9.3778 C.ar    1  LIG1       -0.0577
      2 H           2.8058    5.7397    9.4876 H       1  LIG1        0.0621
      3 C           3.6476    7.3466   10.3635 C.ar    1  LIG1       -0.0615
      4 H           3.9253    6.9032   11.1324 H       1  LIG1        0.0618
      5 C           3.9104    8.6768   10.2210 C.ar    1  LIG1       -0.0617
      6 H           4.3699    9.1385   10.8850 H       1  LIG1        0.0618
      7 C           3.4923    9.3269    9.0928 C.ar    1  LIG1       -0.0615
      8 H           3.6675   10.2346    8.9869 H       1  LIG1        0.0618
      9 C           2.8122    8.6411    8.1150 C.ar    1  LIG1       -0.0577
     10 H           2.5232    9.0970    7.3570 H       1  LIG1        0.0621
     11 C           2.5496    7.2917    8.2328 C.ar    1  LIG1       -0.0355
     12 C           1.8183    6.5752    7.1016 C.3     1  LIG1        0.0372
     13 H           2.1941    6.9328    6.2703 H       1  LIG1        0.0447
     14 C           2.0756    5.0783    7.0640 C.ar    1  LIG1       -0.0348
     15 C           3.1694    4.5842    6.3614 C.ar    1  LIG1       -0.0513
     16 H           3.7145    5.1865    5.9101 H       1  LIG1        0.0624
     17 C           3.4853    3.2379    6.3030 C.ar    1  LIG1       -0.0085
     18 C           4.7005    2.7595    5.5548 C.3     1  LIG1       -0.0362
     19 H           5.1805    3.5154    5.2075 H       1  LIG1        0.0279
     20 H           4.4272    2.1935    4.8284 H       1  LIG1        0.0279
     21 H           5.2678    2.2651    6.1496 H       1  LIG1        0.0279
     22 C           2.6485    2.3474    6.9730 C.ar    1  LIG1        0.1226
     23 C           1.5369    2.7965    7.6934 C.ar    1  LIG1       -0.0085
     24 C           0.6415    1.8122    8.3763 C.3     1  LIG1       -0.0362
     25 H           0.3229    1.1720    7.7360 H       1  LIG1        0.0279
     26 H          -0.1048    2.2749    8.7642 H       1  LIG1        0.0279
     27 H           1.1311    1.3596    9.0670 H       1  LIG1        0.0279
     28 C           1.2754    4.1577    7.7261 C.ar    1  LIG1       -0.0513
     29 H           0.5413    4.4633    8.2071 H       1  LIG1        0.0624
     30 C           0.3405    6.9181    7.0690 C.2     1  LIG1        0.0028
     31 C          -0.3637    6.6165    5.8082 C.2     1  LIG1        0.1598
     32 C          -1.8510    6.8111    5.7983 C.3     1  LIG1        0.0104
     33 H          -2.1446    6.9520    4.8848 H       1  LIG1        0.0345
     34 H          -2.2769    6.0024    6.1249 H       1  LIG1        0.0345
     35 C          -2.2867    7.9403    6.6177 C.3     1  LIG1       -0.0426
     36 H          -3.2557    7.9555    6.6424 H       1  LIG1        0.0272
     37 H          -1.9874    8.7637    6.2011 H       1  LIG1        0.0272
     38 C          -1.7646    7.8879    8.0220 C.3     1  LIG1       -0.0337
     39 H          -1.8589    8.7630    8.4307 H       1  LIG1        0.0308
     40 H          -2.2946    7.2597    8.5366 H       1  LIG1        0.0308
     41 C          -0.3362    7.4768    8.0675 C.2     1  LIG1       -0.0766
     42 H           0.1240    7.6243    8.8622 H       1  LIG1        0.0576
     43 O           2.8609    0.9905    6.9769 O.3     1  LIG1       -0.5062
     44 H           3.4418    0.8035    6.4297 H       1  LIG1        0.2922
     45 O           0.2236    6.2155    4.8181 O.2     1  LIG1       -0.2924
@<TRIPOS>BOND
     1    45    31    2
     2    20    18    1
     3    33    32    1
     4    19    18    1
     5    18    21    1
     6    18    17    1
     7    32    31    1
     8    32    34    1
     9    32    35    1
    10    31    30    1
    11    16    15    1
    12    37    35    1
    13    13    12    1
    14    17    15   ar
    15    17    22   ar
    16    15    14   ar
    17    44    43    1
    18    35    36    1
    19    35    38    1
    20    22    43    1
    21    22    23   ar
    22    14    12    1
    23    14    28   ar
    24    30    12    1
    25    30    41    2
    26    12    11    1
    27    10     9    1
    28    23    28   ar
    29    23    24    1
    30    28    29    1
    31    25    24    1
    32    38    41    1
    33    38    39    1
    34    38    40    1
    35    41    42    1
    36     9    11   ar
    37     9     7   ar
    38    11     1   ar
    39    24    26    1
    40    24    27    1
    41     8     7    1
    42     7     5   ar
    43     1     2    1
    44     1     3   ar
    45     5     3   ar
    46     5     6    1
    47     3     4    1
