@<TRIPOS>MOLECULE
?
 44 47 0 0 0
SMALL
GASTEIGER

@<TRIPOS>ATOM
      1 O          -0.8684   10.3822    7.2779 O.2     1  LIG1       -0.2262
      2 O           0.7044   11.1976    8.6600 O.3     1  LIG1       -0.4480
      3 N           1.1918   11.0717    6.4983 N.am    1  LIG1       -0.2508
      4 C           0.2391   10.8290    7.4298 C.2     1  LIG1        0.4040
      5 C           2.1304   11.4058    8.5589 C.3     1  LIG1        0.1168
      6 H           2.6246   10.5995    8.8515 H       1  LIG1        0.0720
      7 H           2.4131   12.1735    9.1162 H       1  LIG1        0.0720
      8 C           2.3824   11.6897    7.0748 C.3     1  LIG1        0.0890
      9 H           3.2015   11.2046    6.7686 H       1  LIG1        0.0586
     10 C           2.5233   13.1744    6.7918 C.ar    1  LIG1       -0.0237
     11 C           1.4916   13.9479    6.2968 C.ar    1  LIG1       -0.0567
     12 H           0.6577   13.5463    6.0825 H       1  LIG1        0.0621
     13 C           1.6753   15.3162    6.1121 C.ar    1  LIG1       -0.0614
     14 H           0.9643   15.8478    5.7739 H       1  LIG1        0.0618
     15 C           2.8869   15.9018    6.4184 C.ar    1  LIG1       -0.0617
     16 H           3.0099   16.8343    6.2872 H       1  LIG1        0.0618
     17 C           3.9106   15.1416    6.9117 C.ar    1  LIG1       -0.0614
     18 H           4.7425   15.5468    7.1276 H       1  LIG1        0.0618
     19 C           3.7351   13.7815    7.0956 C.ar    1  LIG1       -0.0567
     20 H           4.4512   13.2566    7.4338 H       1  LIG1        0.0621
     21 C           1.1370   10.4529    5.1862 C.3     1  LIG1        0.0475
     22 C           1.7837   11.2429    4.0548 C.3     1  LIG1       -0.0231
     23 H           2.1761   12.1252    4.2722 H       1  LIG1        0.0292
     24 H           2.2575   10.7363    3.3479 H       1  LIG1        0.0292
     25 C           0.3096   11.0992    4.1419 C.3     1  LIG1       -0.0056
     26 C          -0.8919   11.9543    4.0564 C.3     1  LIG1       -0.0448
     27 H          -0.8160   12.8124    3.5686 H       1  LIG1        0.0271
     28 H          -1.5074   11.9659    4.8320 H       1  LIG1        0.0271
     29 C          -0.7846   10.6574    3.2472 C.3     1  LIG1       -0.0448
     30 H          -1.3339    9.8865    3.5334 H       1  LIG1        0.0271
     31 H          -0.6426   10.7315    2.2701 H       1  LIG1        0.0271
     32 C           1.2664    8.9508    5.1982 C.3     1  LIG1       -0.0307
     33 H           1.1082    8.6119    4.2818 H       1  LIG1        0.0286
     34 H           0.5595    8.5765    5.7819 H       1  LIG1        0.0286
     35 C           2.6102    8.4450    5.6779 C.3     1  LIG1       -0.0513
     36 H           2.7605    8.7648    6.6031 H       1  LIG1        0.0266
     37 H           3.3205    8.8324    5.1070 H       1  LIG1        0.0266
     38 C           2.7345    6.9298    5.6547 C.3     1  LIG1       -0.0558
     39 H           2.0624    6.5422    6.2704 H       1  LIG1        0.0263
     40 H           2.5316    6.6050    4.7424 H       1  LIG1        0.0263
     41 C           4.1011    6.4427    6.0545 C.3     1  LIG1       -0.0653
     42 H           4.0980    5.4639    6.1009 H       1  LIG1        0.0230
     43 H           4.3349    6.8110    6.9325 H       1  LIG1        0.0230
     44 H           4.7597    6.7369    5.3909 H       1  LIG1        0.0230
@<TRIPOS>BOND
     1    31    29    1
     2    29    30    1
     3    29    26    1
     4    29    25    1
     5    24    22    1
     6    27    26    1
     7    22    25    1
     8    22    23    1
     9    22    21    1
    10    26    25    1
    11    26    28    1
    12    25    21    1
    13    33    32    1
    14    40    38    1
    15    37    35    1
    16    21    32    1
    17    21     3    1
    18    32    35    1
    19    32    34    1
    20    44    41    1
    21    38    35    1
    22    38    41    1
    23    38    39    1
    24    35    36    1
    25    14    13    1
    26    41    42    1
    27    41    43    1
    28    12    11    1
    29    13    11   ar
    30    13    15   ar
    31    16    15    1
    32    11    10   ar
    33    15    17   ar
    34     3     8    1
    35     3     4   am
    36     9     8    1
    37    10     8    1
    38    10    19   ar
    39    17    19   ar
    40    17    18    1
    41     8     5    1
    42    19    20    1
    43     1     4    2
    44     4     2    1
    45     5     2    1
    46     5     6    1
    47     5     7    1
