@<TRIPOS>MOLECULE
C25 H28 N2 O6
 61 63 0 0 0
SMALL
GASTEIGER

@<TRIPOS>ATOM
      1 O          14.6298    0.2829   28.0098 O.2     1  LIG1       -0.4463
      2 O          12.0765   -2.1723   28.4041 O.2     1  LIG1       -0.2890
      3 O          16.6772    2.1454   27.8647 O.3     1  LIG1       -0.4914
      4 O          10.5631    0.4195   22.0345 O.2     1  LIG1       -0.2708
      5 O           5.8814    4.5951   16.9979 O.3     1  LIG1       -0.4914
      6 O           3.9911    2.8804   17.2927 O.3     1  LIG1       -0.4915
      7 N          10.3258    2.6432   21.8307 N.am    1  LIG1       -0.3115
      8 N          11.9086   -0.7192   25.8727 N.pl3   1  LIG1       -0.3545
      9 C          13.4910   -0.4942   27.7142 C.ar    1  LIG1        0.1917
     10 C          12.9876   -0.1646   26.4700 C.ar    1  LIG1        0.0824
     11 C          13.8716    0.8370   25.9276 C.ar    1  LIG1        0.0526
     12 C          13.9716    1.5105   24.6911 C.ar    1  LIG1       -0.0092
     13 C          15.0171    2.3973   24.5583 C.ar    1  LIG1       -0.0500
     14 C          15.9212    2.6716   25.5967 C.ar    1  LIG1       -0.0157
     15 C          15.8461    2.0007   26.7955 C.ar    1  LIG1        0.1628
     16 C          14.8163    1.0702   26.9174 C.ar    1  LIG1        0.1796
     17 C          13.0524    1.2088   23.5467 C.2     1  LIG1       -0.0377
     18 C          11.8858    1.8280   23.4426 C.2     1  LIG1        0.0036
     19 C          10.8835    1.5623   22.3742 C.2     1  LIG1        0.2372
     20 C           9.2800    2.5797   20.8229 C.3     1  LIG1        0.0159
     21 C           8.0169    3.2577   21.2642 C.3     1  LIG1       -0.0119
     22 C           6.9142    3.1419   20.2382 C.ar    1  LIG1       -0.0422
     23 C           6.9321    3.9612   19.1031 C.ar    1  LIG1       -0.0131
     24 C           5.9405    3.8596   18.1445 C.ar    1  LIG1        0.1617
     25 C           4.9074    2.9220   18.3043 C.ar    1  LIG1        0.1615
     26 C           4.8902    2.1149   19.4167 C.ar    1  LIG1       -0.0160
     27 C           5.9018    2.2307   20.3786 C.ar    1  LIG1       -0.0548
     28 C          17.6607    3.1719   27.7904 C.3     1  LIG1        0.0790
     29 C          13.0738   -1.4836   28.6421 C.2     1  LIG1        0.1967
     30 C          13.8851   -1.6944   29.8901 C.3     1  LIG1        0.0018
     31 C          13.5577    0.1889   22.5652 C.3     1  LIG1       -0.0390
     32 C           6.8769    5.5865   16.8102 C.3     1  LIG1        0.0790
     33 C           3.0272    1.8442   17.3261 C.3     1  LIG1        0.0790
     34 H          15.1276    2.9119   23.6530 H       1  LIG1        0.0625
     35 H          16.6761    3.3781   25.4155 H       1  LIG1        0.0655
     36 H          11.6049    2.6107   24.1695 H       1  LIG1        0.0672
     37 H          10.7201    3.5198   22.1255 H       1  LIG1        0.1490
     38 H           9.5863    3.1455   19.9941 H       1  LIG1        0.0465
     39 H           9.0928    1.6116   20.5953 H       1  LIG1        0.0465
     40 H           8.2062    4.2243   21.7020 H       1  LIG1        0.0328
     41 H           7.6965    2.7717   22.2212 H       1  LIG1        0.0328
     42 H           7.7293    4.6809   19.0186 H       1  LIG1        0.0658
     43 H           4.2014    1.3480   19.5597 H       1  LIG1        0.0655
     44 H           5.8810    1.5491   21.1910 H       1  LIG1        0.0621
     45 H          18.2944    2.9535   26.9567 H       1  LIG1        0.0660
     46 H          18.1284    3.1008   28.7055 H       1  LIG1        0.0660
     47 H          17.1270    4.0912   27.5852 H       1  LIG1        0.0660
     48 H          14.8941   -1.7411   29.7275 H       1  LIG1        0.0310
     49 H          13.5921   -0.8523   30.5200 H       1  LIG1        0.0310
     50 H          13.6265   -2.6757   30.3560 H       1  LIG1        0.0310
     51 H          11.1868   -1.3825   26.2927 H       1  LIG1        0.1424
     52 H          11.4664   -0.2245   25.1177 H       1  LIG1        0.1424
     53 H          13.0606    0.2006   21.7020 H       1  LIG1        0.0278
     54 H          14.5823    0.3225   22.4125 H       1  LIG1        0.0278
     55 H          13.3920   -0.8000   23.1502 H       1  LIG1        0.0278
     56 H           6.5892    6.0132   15.9445 H       1  LIG1        0.0660
     57 H           7.7987    5.2208   16.7096 H       1  LIG1        0.0660
     58 H           6.9196    6.2519   17.5567 H       1  LIG1        0.0660
     59 H           2.4891    1.9463   16.5538 H       1  LIG1        0.0660
     60 H           2.4358    1.9616   18.0841 H       1  LIG1        0.0660
     61 H           3.5086    0.9051   17.4283 H       1  LIG1        0.0660
@<TRIPOS>BOND
     1    56    32    1
     2    59    33    1
     3    57    32    1
     4    32     5    1
     5    32    58    1
     6     5    24    1
     7     6    33    1
     8     6    25    1
     9    33    61    1
    10    33    60    1
    11    24    25   ar
    12    24    23   ar
    13    25    26   ar
    14    42    23    1
    15    23    22   ar
    16    26    43    1
    17    26    27   ar
    18    38    20    1
    19    22    27   ar
    20    22    21    1
    21    27    44    1
    22    39    20    1
    23    20    21    1
    24    20     7    1
    25    21    40    1
    26    21    41    1
    27    53    31    1
    28     7    37    1
    29     7    19   am
    30     4    19    2
    31    19    18    1
    32    54    31    1
    33    31    55    1
    34    31    17    1
    35    18    17    2
    36    18    36    1
    37    17    12    1
    38    34    13    1
    39    13    12   ar
    40    13    14   ar
    41    12    11   ar
    42    52     8    1
    43    35    14    1
    44    14    15   ar
    45     8    51    1
    46     8    10    1
    47    11    10   ar
    48    11    16   ar
    49    10     9   ar
    50    15    16   ar
    51    15     3    1
    52    16     1   ar
    53    45    28    1
    54    47    28    1
    55     9     1   ar
    56     9    29    1
    57    28     3    1
    58    28    46    1
    59     2    29    2
    60    29    30    1
    61    48    30    1
    62    30    50    1
    63    30    49    1
