@<TRIPOS>MOLECULE
7150436.cif
 52 53 0 0 0
SMALL
GASTEIGER

@<TRIPOS>ATOM
      1 N           2.7052   -3.2124   14.7503 N.1     1  LIG1       -0.1915
      2 C           6.2007    3.6140   16.0611 C.3     1  LIG1       -0.0436
      3 H           7.1091    3.2263   15.9933 H       1  LIG1        0.0274
      4 H           6.2951    4.5598   16.3363 H       1  LIG1        0.0274
      5 C           5.4220    2.8645   17.1252 C.3     1  LIG1       -0.0486
      6 H           4.5102    3.2427   17.2034 H       1  LIG1        0.0269
      7 H           5.8734    2.9607   18.0015 H       1  LIG1        0.0269
      8 C           5.5290    3.5589   14.6812 C.3     1  LIG1       -0.0099
      9 C           6.5763    3.9695   13.6316 C.3     1  LIG1       -0.0558
     10 H           7.2356    3.2521   13.5300 H       1  LIG1        0.0238
     11 H           7.0277    4.7889   13.9243 H       1  LIG1        0.0238
     12 H           6.1323    4.1298   12.7735 H       1  LIG1        0.0238
     13 C           4.3679    4.5692   14.6224 C.3     1  LIG1       -0.0558
     14 H           3.7129    4.3542   15.3186 H       1  LIG1        0.0238
     15 H           3.9385    4.5222   13.7432 H       1  LIG1        0.0238
     16 H           4.7142    5.4739   14.7689 H       1  LIG1        0.0238
     17 C           5.3379    1.3900   16.7466 C.3     1  LIG1       -0.0314
     18 H           6.2157    0.9646   16.9133 H       1  LIG1        0.0310
     19 H           4.6711    0.9458   17.3284 H       1  LIG1        0.0310
     20 C           4.9942    2.1521   14.3826 C.2     1  LIG1       -0.0427
     21 C           4.9531    1.1687   15.3032 C.2     1  LIG1       -0.0689
     22 C           4.5335   -0.2484   15.0167 C.3     1  LIG1       -0.0432
     23 H           4.5387   -0.4006   14.0493 H       1  LIG1        0.0275
     24 H           3.6306   -0.3995   15.3667 H       1  LIG1        0.0275
     25 H           5.1585   -0.8683   15.4484 H       1  LIG1        0.0275
     26 C           4.4648    1.9811   13.0125 C.2     1  LIG1       -0.0579
     27 H           5.0379    2.1794   12.2815 H       1  LIG1        0.0621
     28 C           3.2124    1.5584   12.7460 C.2     1  LIG1       -0.0586
     29 H           2.6910    1.2442   13.4755 H       1  LIG1        0.0620
     30 C           2.5979    1.5468   11.4237 C.2     1  LIG1       -0.0502
     31 C           3.3744    2.1514   10.2848 C.3     1  LIG1       -0.0397
     32 H           2.8538    2.0749    9.4575 H       1  LIG1        0.0278
     33 H           4.2249    1.6754   10.1804 H       1  LIG1        0.0278
     34 H           3.5501    3.0970   10.4752 H       1  LIG1        0.0278
     35 C           1.3436    1.0822   11.1963 C.2     1  LIG1       -0.0556
     36 H           1.0062    1.2184   10.3182 H       1  LIG1        0.0623
     37 C           0.4418    0.4001   12.1236 C.2     1  LIG1       -0.0468
     38 C           0.8652   -0.5326   13.0165 C.2     1  LIG1       -0.0547
     39 H           1.7731   -0.8107   12.9915 H       1  LIG1        0.0623
     40 C          -1.0236    0.7432   11.9951 C.3     1  LIG1       -0.0274
     41 H          -1.2631    0.7754   11.0346 H       1  LIG1        0.0313
     42 H          -1.1768    1.6449   12.3744 H       1  LIG1        0.0313
     43 C          -0.0181   -1.1199   14.0068 C.2     1  LIG1       -0.0370
     44 C          -1.9391   -0.2532   12.7006 C.3     1  LIG1       -0.0450
     45 H          -2.8529    0.1222   12.7639 H       1  LIG1        0.0272
     46 H          -1.9859   -1.0915   12.1757 H       1  LIG1        0.0272
     47 C          -1.4070   -0.5514   14.1007 C.3     1  LIG1       -0.0267
     48 H          -1.3916    0.2808   14.6359 H       1  LIG1        0.0313
     49 H          -2.0026   -1.1996   14.5541 H       1  LIG1        0.0313
     50 C           0.3708   -2.1175   14.8397 C.2     1  LIG1        0.0185
     51 H          -0.2452   -2.4356   15.4885 H       1  LIG1        0.0735
     52 C           1.6702   -2.7079   14.7785 C.1     1  LIG1        0.0916
@<TRIPOS>BOND
     1    32    31    1
     2    33    31    1
     3    31    34    1
     4    31    30    1
     5    36    35    1
     6    41    40    1
     7    35    30    2
     8    35    37    1
     9    30    28    1
    10    40    37    1
    11    40    42    1
    12    40    44    1
    13    37    38    2
    14    46    44    1
    15    27    26    1
    16    44    45    1
    17    44    47    1
    18    28    26    2
    19    28    29    1
    20    12     9    1
    21    39    38    1
    22    26    20    1
    23    38    43    1
    24    10     9    1
    25     9    11    1
    26     9     8    1
    27    15    13    1
    28    43    47    1
    29    43    50    2
    30    23    22    1
    31    47    49    1
    32    47    48    1
    33    20     8    1
    34    20    21    2
    35    13     8    1
    36    13    16    1
    37    13    14    1
    38     8     2    1
    39     1    52    3
    40    52    50    1
    41    50    51    1
    42    22    21    1
    43    22    24    1
    44    22    25    1
    45    21    17    1
    46     3     2    1
    47     2     4    1
    48     2     5    1
    49    17    18    1
    50    17     5    1
    51    17    19    1
    52     5     6    1
    53     5     7    1
