@<TRIPOS>MOLECULE
?
 33 35 0 0 0
SMALL
GASTEIGER

@<TRIPOS>ATOM
      1 BR          1.3735    5.3453    3.0804 Br      1  LIG1       -0.0546
      2 O           5.2548    3.1638    4.6659 O.3     1  LIG1       -0.4253
      3 O           6.1090    2.0799    2.9671 O.2     1  LIG1       -0.2500
      4 O           1.8434    0.9064    0.3103 O.2     1  LIG1       -0.2505
      5 O           1.9628   -0.0655    2.3167 O.3     1  LIG1       -0.4677
      6 C           2.5176    3.8845    2.6361 C.2     1  LIG1       -0.0001
      7 C           2.6081    2.7764    3.6685 C.3     1  LIG1        0.0325
      8 C           2.8621    3.2711    5.0719 C.ar    1  LIG1        0.0037
      9 C           1.8441    3.5470    5.9775 C.ar    1  LIG1       -0.0545
     10 C           2.1356    4.0048    7.2555 C.ar    1  LIG1       -0.0613
     11 C           3.4549    4.1879    7.6421 C.ar    1  LIG1       -0.0583
     12 C           4.4838    3.8982    6.7709 C.ar    1  LIG1       -0.0189
     13 C           4.1685    3.4315    5.5050 C.ar    1  LIG1        0.1354
     14 C           5.1220    2.3527    3.5839 C.2     1  LIG1        0.3172
     15 C           3.7352    1.8096    3.2612 C.3     1  LIG1        0.0813
     16 C           3.6839    1.4687    1.7675 C.3     1  LIG1        0.0736
     17 C           3.8971    2.7236    0.9235 C.3     1  LIG1       -0.0200
     18 C           3.0854    3.8822    1.4381 C.2     1  LIG1       -0.0726
     19 C           2.3888    0.7735    1.3718 C.2     1  LIG1        0.3111
     20 C           0.8139   -0.8760    1.9573 C.3     1  LIG1        0.0817
     21 H           1.7177    2.3203    3.6848 H       1  LIG1        0.0412
     22 H           0.8912    3.4138    5.7053 H       1  LIG1        0.0622
     23 H           1.3943    4.2024    7.8971 H       1  LIG1        0.0618
     24 H           3.6610    4.5318    8.5582 H       1  LIG1        0.0619
     25 H           5.4364    4.0227    7.0469 H       1  LIG1        0.0654
     26 H           3.5778    0.9834    3.8020 H       1  LIG1        0.0431
     27 H           4.4274    0.8238    1.5901 H       1  LIG1        0.0425
     28 H           4.8654    2.9702    0.9474 H       1  LIG1        0.0316
     29 H           3.6254    2.5311   -0.0193 H       1  LIG1        0.0316
     30 H           2.9694    4.6835    0.8516 H       1  LIG1        0.0580
     31 H           0.5708   -1.4688    2.7251 H       1  LIG1        0.0661
     32 H           1.0389   -1.4379    1.1608 H       1  LIG1        0.0661
     33 H           0.0412   -0.2808    1.7382 H       1  LIG1        0.0661
@<TRIPOS>BOND
     1    29    17    1
     2     4    19    2
     3    30    18    1
     4    17    28    1
     5    17    18    1
     6    17    16    1
     7    32    20    1
     8    19    16    1
     9    19     5    1
    10    18     6    2
    11    27    16    1
    12    33    20    1
    13    16    15    1
    14    20     5    1
    15    20    31    1
    16     6     1    1
    17     6     7    1
    18     3    14    2
    19    15    14    1
    20    15     7    1
    21    15    26    1
    22    14     2    1
    23     7    21    1
    24     7     8    1
    25     2    13    1
    26     8    13   ar
    27     8     9   ar
    28    13    12   ar
    29    22     9    1
    30     9    10   ar
    31    12    25    1
    32    12    11   ar
    33    10    11   ar
    34    10    23    1
    35    11    24    1
