@<TRIPOS>MOLECULE
?
 38 42 0 0 0
SMALL
GASTEIGER

@<TRIPOS>ATOM
      1 CL         11.5815    1.2087    1.8673 Cl      1  LIG1       -0.1049
      2 CL          9.8927    0.0530   -0.7284 Cl      1  LIG1       -0.1012
      3 O           7.9427   -1.0445    1.1593 O.3     1  LIG1       -0.4778
      4 O          13.0115   -1.3250    2.9642 O.2     1  LIG1       -0.2732
      5 N          12.3352   -2.2595    0.9789 N.am    1  LIG1       -0.2421
      6 C          11.0429   -0.4648    1.8168 C.3     1  LIG1        0.1634
      7 C           9.2151   -1.6312    1.4729 C.3     1  LIG1        0.1739
      8 C          10.3843   -1.0386    0.5467 C.3     1  LIG1        0.1930
      9 C           8.2711   -3.7331    0.5164 C.ar    1  LIG1       -0.0547
     10 H           7.7465   -3.2098   -0.0461 H       1  LIG1        0.0622
     11 C          12.2582   -1.3706    2.0315 C.2     1  LIG1        0.2456
     12 O          11.2317   -2.7540   -0.9710 O.2     1  LIG1       -0.2730
     13 C           9.8175   -0.8572    2.6836 C.3     1  LIG1        0.0637
     14 H          10.0163   -1.4013    3.4741 H       1  LIG1        0.0416
     15 C           8.7917    0.2309    2.8878 C.ar    1  LIG1        0.0038
     16 C          11.3240   -2.1079    0.0395 C.2     1  LIG1        0.2490
     17 C           9.1019   -3.1306    1.4452 C.ar    1  LIG1       -0.0014
     18 C           8.7095    1.2506    3.8061 C.ar    1  LIG1       -0.0546
     19 H           9.3845    1.3755    4.4332 H       1  LIG1        0.0622
     20 C           9.8600   -3.9263    2.2779 C.ar    1  LIG1       -0.0547
     21 H          10.4032   -3.5290    2.9195 H       1  LIG1        0.0622
     22 C           7.7660    0.0515    1.9801 C.ar    1  LIG1        0.1256
     23 C           9.8261   -5.3048    2.1764 C.ar    1  LIG1       -0.0614
     24 H          10.3534   -5.8291    2.7363 H       1  LIG1        0.0618
     25 C           6.6024    1.8888    2.8602 C.ar    1  LIG1       -0.0583
     26 H           5.8674    2.4587    2.8575 H       1  LIG1        0.0619
     27 C           6.6549    0.8701    1.9393 C.ar    1  LIG1       -0.0196
     28 H           5.9747    0.7383    1.3188 H       1  LIG1        0.0654
     29 C           8.2192   -5.1146    0.4216 C.ar    1  LIG1       -0.0614
     30 H           7.6525   -5.5149   -0.1963 H       1  LIG1        0.0618
     31 C           9.0032   -5.8984    1.2384 C.ar    1  LIG1       -0.0617
     32 H           8.9782   -6.8240    1.1593 H       1  LIG1        0.0618
     33 C           7.6059    2.0930    3.7890 C.ar    1  LIG1       -0.0613
     34 H           7.5434    2.7916    4.3989 H       1  LIG1        0.0618
     35 C          13.3417   -3.2971    0.8985 C.3     1  LIG1        0.0109
     36 H          13.9394   -3.2208    1.6468 H       1  LIG1        0.0433
     37 H          13.8369   -3.1989    0.0817 H       1  LIG1        0.0433
     38 H          12.9173   -4.1572    0.9143 H       1  LIG1        0.0433
@<TRIPOS>BOND
     1    12    16    2
     2     2     8    1
     3    30    29    1
     4    10     9    1
     5    16     8    1
     6    16     5   am
     7    37    35    1
     8    29     9   ar
     9    29    31   ar
    10     9    17   ar
    11     8     7    1
    12     8     6    1
    13    35    38    1
    14    35     5    1
    15    35    36    1
    16     5    11   am
    17     3     7    1
    18     3    22    1
    19    32    31    1
    20    31    23   ar
    21    28    27    1
    22    17     7    1
    23    17    20   ar
    24     7    13    1
    25     6     1    1
    26     6    11    1
    27     6    13    1
    28    27    22   ar
    29    27    25   ar
    30    22    15   ar
    31    11     4    2
    32    23    20   ar
    33    23    24    1
    34    20    21    1
    35    13    15    1
    36    13    14    1
    37    26    25    1
    38    25    33   ar
    39    15    18   ar
    40    33    18   ar
    41    33    34    1
    42    18    19    1
