@<TRIPOS>MOLECULE
?
 61 62 0 0 0
SMALL
GASTEIGER

@<TRIPOS>ATOM
      1 O           6.1891    3.7028   18.8795 O.2     1  LIG1       -0.2478
      2 O           7.7691    4.6327   17.7013 O.3     1  LIG1       -0.4252
      3 O           6.6193    3.6669   15.3061 O.3     1  LIG1       -0.3286
      4 O           8.7175    2.8492   15.8655 O.3     1  LIG1       -0.3470
      5 O           7.3795    6.1121   15.9693 O.3     1  LIG1       -0.3387
      6 O           2.1729    2.7102   13.7317 O.2     1  LIG1       -0.2504
      7 O           2.2271    4.5052   14.9639 O.3     1  LIG1       -0.4644
      8 O           4.7076    0.5858   16.1342 O.3     1  LIG1       -0.3863
      9 H           4.5585   -0.3647   16.2107 H       1  LIG1        0.2103
     10 O           0.0517    1.3479   20.4047 O.3     1  LIG1       -0.4951
     11 O           5.4023    2.0944   21.0670 O.3     2  HOH2       -0.4105
     12 H           5.9520    2.3919   21.7079 H       0  HOH0        0.2052
     13 H           5.6201    2.4971   20.3234 H       0  HOH0        0.2052
     14 C           6.6519    3.9048   17.7819 C.2     1  LIG1        0.3392
     15 C           6.0414    3.2724   16.5524 C.3     1  LIG1        0.1623
     16 H           6.1523    2.2820   16.6359 H       1  LIG1        0.0717
     17 C           8.0028    3.9532   15.3617 C.3     1  LIG1        0.2344
     18 C           8.2191    5.0828   16.3767 C.3     1  LIG1        0.2665
     19 C           8.4117    4.3527   13.9670 C.3     1  LIG1       -0.0040
     20 H           8.1113    3.6713   13.3303 H       1  LIG1        0.0283
     21 H           9.3873    4.4339   13.9236 H       1  LIG1        0.0283
     22 H           8.0019    5.2148   13.7412 H       1  LIG1        0.0283
     23 C           9.6641    5.4709   16.5784 C.3     1  LIG1        0.0066
     24 H           9.7331    6.0906   17.3347 H       1  LIG1        0.0295
     25 H          10.0016    5.9042   15.7678 H       1  LIG1        0.0295
     26 H          10.1948    4.6683   16.7653 H       1  LIG1        0.0295
     27 C           8.6818    1.6853   15.0312 C.3     1  LIG1        0.0399
     28 H           8.9660    0.9032   15.5482 H       1  LIG1        0.0525
     29 H           9.2857    1.8099   14.2697 H       1  LIG1        0.0525
     30 H           7.7686    1.5458   14.7052 H       1  LIG1        0.0525
     31 C           7.4252    7.3254   16.7258 C.3     1  LIG1        0.0409
     32 H           6.6369    7.8685   16.5196 H       1  LIG1        0.0525
     33 H           8.2358    7.8239   16.4936 H       1  LIG1        0.0525
     34 H           7.4344    7.1127   17.6825 H       1  LIG1        0.0525
     35 C           4.5405    3.5630   16.4634 C.3     1  LIG1        0.0145
     36 H           4.1302    3.3190   17.3422 H       1  LIG1        0.0341
     37 C           3.8858    2.6857   15.3798 C.3     1  LIG1        0.0921
     38 H           4.5909    2.5475   14.6842 H       1  LIG1        0.0446
     39 C           2.7043    3.3008   14.6462 C.2     1  LIG1        0.3134
     40 C           4.2566    5.0376   16.2124 C.3     1  LIG1       -0.0120
     41 H           4.6088    5.5784   16.9638 H       1  LIG1        0.0302
     42 H           4.7126    5.3291   15.3830 H       1  LIG1        0.0302
     43 C           2.7761    5.2582   16.0810 C.3     1  LIG1        0.0928
     44 H           2.3272    4.9781   16.9177 H       1  LIG1        0.0697
     45 H           2.5983    6.2221   15.9461 H       1  LIG1        0.0697
     46 C           3.4953    1.2660   15.8642 C.3     1  LIG1        0.0934
     47 H           3.0304    0.7947   15.1146 H       1  LIG1        0.0652
     48 C           2.5597    1.2896   17.0703 C.ar    1  LIG1       -0.0181
     49 C           1.2417    1.7005   16.9363 C.ar    1  LIG1       -0.0527
     50 H           0.9250    1.9627   16.0799 H       1  LIG1        0.0622
     51 C           0.3706    1.7399   18.0192 C.ar    1  LIG1       -0.0196
     52 H          -0.5242    2.0377   17.9042 H       1  LIG1        0.0654
     53 C           0.8186    1.3418   19.2640 C.ar    1  LIG1        0.1201
     54 C           2.1278    0.9192   19.4207 C.ar    1  LIG1       -0.0196
     55 H           2.4360    0.6380   20.2739 H       1  LIG1        0.0654
     56 C           2.9885    0.9083   18.3365 C.ar    1  LIG1       -0.0527
     57 H           3.8905    0.6346   18.4602 H       1  LIG1        0.0622
     58 C          -1.2948    1.8030   20.2853 C.3     1  LIG1        0.0788
     59 H          -1.7402    1.7367   21.1552 H       1  LIG1        0.0660
     60 H          -1.7703    1.2485   19.6311 H       1  LIG1        0.0660
     61 H          -1.2997    2.7360   19.9866 H       1  LIG1        0.0660
@<TRIPOS>BOND
     1    20    19    1
     2     6    39    2
     3    22    19    1
     4    21    19    1
     5    19    17    1
     6    29    27    1
     7    39     7    1
     8    39    37    1
     9    38    37    1
    10    30    27    1
    11     7    43    1
    12    27    28    1
    13    27     4    1
    14    47    46    1
    15     3    17    1
    16     3    15    1
    17    17     4    1
    18    17    18    1
    19    37    46    1
    20    37    35    1
    21    42    40    1
    22    25    23    1
    23    46     8    1
    24    46    48    1
    25    45    43    1
    26     5    18    1
    27     5    31    1
    28    50    49    1
    29    43    40    1
    30    43    44    1
    31     8     9    1
    32    40    35    1
    33    40    41    1
    34    18    23    1
    35    18     2    1
    36    35    15    1
    37    35    36    1
    38    33    31    1
    39    32    31    1
    40    15    16    1
    41    15    14    1
    42    23    26    1
    43    23    24    1
    44    31    34    1
    45    49    48   ar
    46    49    51   ar
    47    48    56   ar
    48     2    14    1
    49    14     1    2
    50    52    51    1
    51    51    53   ar
    52    56    57    1
    53    56    54   ar
    54    53    54   ar
    55    53    10    1
    56    54    55    1
    57    60    58    1
    58    61    58    1
    59    58    10    1
    60    58    59    1
    61    13    11    1
    62    11    12    1
