@<TRIPOS>MOLECULE
?
 96 105 0 0 0
SMALL
GASTEIGER

@<TRIPOS>ATOM
      1 O           0.1399   10.5935    0.2099 O.2     1  LIG1       -0.2262
      2 O           2.0224    9.4220   -0.1445 O.3     1  LIG1       -0.4480
      3 N           2.1668   11.2350    1.1174 N.am    1  LIG1       -0.2535
      4 C           1.3245   10.4524    0.4028 C.2     1  LIG1        0.4038
      5 C           3.4340    9.6060    0.1301 C.3     1  LIG1        0.1168
      6 H           3.9042    9.9560   -0.6685 H       1  LIG1        0.0720
      7 H           3.8535    8.7511    0.3996 H       1  LIG1        0.0720
      8 C           3.4842   10.6250    1.2812 C.3     1  LIG1        0.0887
      9 H           4.1957   11.3045    1.1001 H       1  LIG1        0.0585
     10 C           3.7012   10.0073    2.6474 C.ar    1  LIG1       -0.0237
     11 C           2.7279    9.2323    3.2640 C.ar    1  LIG1       -0.0567
     12 H           1.8839    9.1133    2.8443 H       1  LIG1        0.0621
     13 C           2.9771    8.6326    4.4823 C.ar    1  LIG1       -0.0614
     14 H           2.3051    8.1020    4.8934 H       1  LIG1        0.0618
     15 C           4.1921    8.7996    5.1046 C.ar    1  LIG1       -0.0617
     16 H           4.3649    8.3731    5.9359 H       1  LIG1        0.0618
     17 C           5.1558    9.5867    4.5184 C.ar    1  LIG1       -0.0614
     18 H           5.9905    9.7185    4.9536 H       1  LIG1        0.0618
     19 C           4.9105   10.1880    3.2927 C.ar    1  LIG1       -0.0567
     20 H           5.5807   10.7300    2.8930 H       1  LIG1        0.0621
     21 C           1.7568   12.3088    1.9826 C.3     1  LIG1        0.0361
     22 H           1.5960   12.0615    2.9378 H       1  LIG1        0.0507
     23 C           0.8924   13.4230    1.4356 C.3     1  LIG1       -0.0263
     24 H           0.6331   13.3808    0.4802 H       1  LIG1        0.0289
     25 H           0.2127   13.8190    2.0363 H       1  LIG1        0.0289
     26 C           2.3086   13.6529    1.7532 C.3     1  LIG1       -0.0088
     27 C           3.1482   14.6202    2.4960 C.3     1  LIG1       -0.0451
     28 H           3.7414   14.2674    3.2068 H       1  LIG1        0.0271
     29 H           2.7732   15.5194    2.6727 H       1  LIG1        0.0271
     30 C           3.4675   14.2527    1.0565 C.3     1  LIG1       -0.0451
     31 H           3.2874   14.9290    0.3560 H       1  LIG1        0.0271
     32 H           4.2556   13.6771    0.8901 H       1  LIG1        0.0271
     33 O           3.1299    2.1659    5.1010 O.2     2  LIG2       -0.2262
     34 O           4.7736    0.6463    5.3561 O.3     2  LIG2       -0.4480
     35 N           5.1850    2.7340    5.9589 N.am    2  LIG2       -0.2535
     36 C           4.2550    1.9020    5.4550 C.2     2  LIG2        0.4038
     37 C           6.1542    0.6543    5.7655 C.3     2  LIG2        0.1168
     38 H           6.7484    0.5030    4.9882 H       2  LIG2        0.0720
     39 H           6.3219   -0.0557    6.4353 H       2  LIG2        0.0720
     40 C           6.4097    2.0390    6.3765 C.3     2  LIG2        0.0887
     41 H           7.2009    2.4600    5.9320 H       2  LIG2        0.0585
     42 C           6.6056    2.0547    7.8731 C.ar    2  LIG2       -0.0237
     43 C           5.6444    1.5250    8.7281 C.ar    2  LIG2       -0.0567
     44 H           4.8463    1.1593    8.3653 H       2  LIG2        0.0621
     45 C           5.8322    1.5236   10.0955 C.ar    2  LIG2       -0.0614
     46 H           5.1676    1.1593   10.6679 H       2  LIG2        0.0618
     47 C           6.9919    2.0540   10.6269 C.ar    2  LIG2       -0.0617
     48 H           7.1299    2.0478   11.5669 H       2  LIG2        0.0618
     49 C           7.9483    2.5931    9.7958 C.ar    2  LIG2       -0.0614
     50 H           8.7421    2.9639   10.1633 H       2  LIG2        0.0618
     51 C           7.7519    2.5962    8.4216 C.ar    2  LIG2       -0.0567
     52 H           8.4129    2.9736    7.8530 H       2  LIG2        0.0621
     53 C           4.9088    4.0640    6.4059 C.3     2  LIG2        0.0361
     54 H           4.5958    4.1525    7.3523 H       2  LIG2        0.0507
     55 C           4.3418    5.0681    5.4210 C.3     2  LIG2       -0.0263
     56 H           4.1885    4.7672    4.4900 H       2  LIG2        0.0289
     57 H           3.6871    5.7292    5.7591 H       2  LIG2        0.0289
     58 C           5.7336    5.1773    5.8885 C.3     2  LIG2       -0.0088
     59 C           6.6521    6.1964    6.4404 C.3     2  LIG2       -0.0451
     60 H           7.0773    6.0101    7.3151 H       2  LIG2        0.0271
     61 H           6.4413    7.1482    6.2714 H       2  LIG2        0.0271
     62 C           7.0596    5.3417    5.2597 C.3     2  LIG2       -0.0451
     63 H           7.0988    5.7712    4.3683 H       2  LIG2        0.0271
     64 H           7.7348    4.6331    5.4121 H       2  LIG2        0.0271
     65 O           2.3030    6.3398    9.2940 O.2     3  LIG3       -0.2262
     66 O           4.0151    4.9914    9.8383 O.3     3  LIG3       -0.4480
     67 N           4.3554    7.1695    9.9037 N.am    3  LIG3       -0.2535
     68 C           3.4441    6.2225    9.6447 C.2     3  LIG3        0.4038
     69 C           5.3898    5.1466   10.2235 C.3     3  LIG3        0.1168
     70 H           5.9914    4.8779    9.4846 H       3  LIG3        0.0720
     71 H           5.5941    4.5906   11.0175 H       3  LIG3        0.0720
     72 C           5.5649    6.6323   10.5462 C.3     3  LIG3        0.0887
     73 H           6.3809    6.9880   10.0891 H       3  LIG3        0.0585
     74 C           5.6156    6.9645   12.0293 C.ar    3  LIG3       -0.0237
     75 C           4.5894    6.6114   12.8873 C.ar    3  LIG3       -0.0567
     76 H           3.8365    6.1397   12.5492 H       3  LIG3        0.0621
     77 C           4.6471    6.9373   14.2269 C.ar    3  LIG3       -0.0614
     78 H           3.9352    6.6882   14.8044 H       3  LIG3        0.0618
     79 C           5.7305    7.6204   14.7302 C.ar    3  LIG3       -0.0617
     80 H           5.7699    7.8458   15.6522 H       3  LIG3        0.0618
     81 C           6.7539    7.9723   13.8862 C.ar    3  LIG3       -0.0614
     82 H           7.5065    8.4397   14.2281 H       3  LIG3        0.0618
     83 C           6.7009    7.6540   12.5415 C.ar    3  LIG3       -0.0567
     84 H           7.4131    7.9091   11.9665 H       3  LIG3        0.0621
     85 C           4.0416    8.5634   10.0045 C.3     3  LIG3        0.0361
     86 H           3.7684    8.8876   10.9100 H       3  LIG3        0.0507
     87 C           3.4142    9.2769    8.8263 C.3     3  LIG3       -0.0263
     88 H           3.2263    8.7468    8.0105 H       3  LIG3        0.0289
     89 H           2.7631    9.9980    9.0159 H       3  LIG3        0.0289
     90 C           4.8284    9.5125    9.1849 C.3     3  LIG3       -0.0088
     91 C           5.7428   10.6361    9.4346 C.3     3  LIG3       -0.0451
     92 H           6.1991   10.6763   10.3119 H       3  LIG3        0.0271
     93 H           5.5133   11.5163    9.0415 H       3  LIG3        0.0271
     94 C           6.1272    9.5136    8.4844 C.3     3  LIG3       -0.0451
     95 H           6.1294    9.7079    7.5136 H       3  LIG3        0.0271
     96 H           6.8152    8.8679    8.7841 H       3  LIG3        0.0271
@<TRIPOS>BOND
     1     6     5    1
     2     2     5    1
     3     2     4    1
     4     5     7    1
     5     5     8    1
     6     1     4    2
     7    31    30    1
     8     4     3   am
     9    24    23    1
    10    32    30    1
    11    30    26    1
    12    30    27    1
    13     9     8    1
    14     3     8    1
    15     3    21    1
    16     8    10    1
    17    23    26    1
    18    23    21    1
    19    23    25    1
    20    26    21    1
    21    26    27    1
    22    21    22    1
    23    27    29    1
    24    27    28    1
    25    10    11   ar
    26    10    19   ar
    27    12    11    1
    28    20    19    1
    29    11    13   ar
    30    19    17   ar
    31    63    62    1
    32    13    14    1
    33    13    15   ar
    34    56    55    1
    35    17    18    1
    36    17    15   ar
    37    38    37    1
    38    33    36    2
    39    15    16    1
    40    62    64    1
    41    62    58    1
    42    62    59    1
    43    34    36    1
    44    34    37    1
    45    55    57    1
    46    55    58    1
    47    55    53    1
    48    36    35   am
    49    37    40    1
    50    37    39    1
    51    58    53    1
    52    58    59    1
    53    41    40    1
    54    35    40    1
    55    35    53    1
    56    61    59    1
    57    40    42    1
    58    53    54    1
    59    59    60    1
    60    95    94    1
    61    52    51    1
    62    42    51   ar
    63    42    43   ar
    64    88    87    1
    65    44    43    1
    66    51    49   ar
    67    94    96    1
    68    94    90    1
    69    94    91    1
    70    43    45   ar
    71    87    89    1
    72    87    90    1
    73    87    85    1
    74    93    91    1
    75    90    91    1
    76    90    85    1
    77    65    68    2
    78    91    92    1
    79    70    69    1
    80    68    66    1
    81    68    67   am
    82    49    50    1
    83    49    47   ar
    84    66    69    1
    85    67    85    1
    86    67    72    1
    87    85    86    1
    88    73    72    1
    89    45    47   ar
    90    45    46    1
    91    69    72    1
    92    69    71    1
    93    72    74    1
    94    47    48    1
    95    84    83    1
    96    74    83   ar
    97    74    75   ar
    98    83    81   ar
    99    76    75    1
   100    75    77   ar
   101    81    82    1
   102    81    79   ar
   103    77    79   ar
   104    77    78    1
   105    79    80    1
