@<TRIPOS>MOLECULE
?
 26 25 0 0 0
SMALL
GASTEIGER

@<TRIPOS>ATOM
      1 C          -0.5817    4.4799    4.0956 C.3     1  LIG1        0.0121
      2 H          -1.2430    4.7933    4.7468 H       1  LIG1        0.0322
      3 H          -1.0432    4.1072    3.3147 H       1  LIG1        0.0322
      4 H          -0.0178    5.2303    3.8140 H       1  LIG1        0.0322
      5 C           0.2756    3.4186    4.7236 C.2     1  LIG1        0.2100
      6 C           0.6435    1.0182    4.9675 C.3     1  LIG1        0.0254
      7 H          -0.0462    0.4280    5.3635 H       1  LIG1        0.0474
      8 H           1.2177    1.3423    5.7068 H       1  LIG1        0.0474
      9 C           1.4904    0.2006    4.0288 C.3     1  LIG1        0.0391
     10 C           2.0113   -1.0094    4.4775 C.2     1  LIG1       -0.0574
     11 H           1.7995   -1.3215    5.3493 H       1  LIG1        0.0594
     12 C           2.8257   -1.7514    3.6682 C.2     1  LIG1       -0.0071
     13 H           3.1794   -2.5756    3.9811 H       1  LIG1        0.0780
     14 C           1.8028    0.6111    2.7395 C.2     1  LIG1       -0.0574
     15 H           1.4478    1.4227    2.3972 H       1  LIG1        0.0594
     16 C           2.6294   -0.1626    1.9608 C.2     1  LIG1       -0.0071
     17 H           2.8486    0.1245    1.0816 H       1  LIG1        0.0780
     18 C           4.0586   -2.1112    1.5981 C.3     1  LIG1        0.0047
     19 H           3.7418   -2.1230    0.6715 H       1  LIG1        0.0431
     20 H           4.0992   -3.0282    1.9414 H       1  LIG1        0.0431
     21 H           4.9525   -1.7093    1.6326 H       1  LIG1        0.0431
     22 N          -0.0142    2.1524    4.3682 N.am    1  LIG1       -0.3144
     23 H          -0.6254    2.0128    3.7502 H       1  LIG1        0.1487
     24 N           3.1320   -1.3180    2.4243 N.pl3   1  LIG1       -0.3161
     25 O           1.1756    3.6831    5.5188 O.2     1  LIG1       -0.2761
     26 I           6.0296    1.3240    1.9628 I       2  LIG2        0.0000
@<TRIPOS>BOND
     1    19    18    1
     2    17    16    1
     3    18    21    1
     4    18    20    1
     5    18    24    1
     6    16    24    1
     7    16    14    2
     8    15    14    1
     9    24    12    1
    10    14     9    1
    11     3     1    1
    12    12    13    1
    13    12    10    2
    14    23    22    1
    15     4     1    1
    16     9    10    1
    17     9     6    1
    18     1     5    1
    19     1     2    1
    20    22     5   am
    21    22     6    1
    22    10    11    1
    23     5    25    2
    24     6     7    1
    25     6     8    1
