@<TRIPOS>MOLECULE
?
 25 25 0 0 0
SMALL
GASTEIGER

@<TRIPOS>ATOM
      1 O           0.4150    0.3398    3.3166 O.2     1  LIG1       -0.1261
      2 O           0.9264   -0.0350    1.2437 O.2     1  LIG1       -0.1261
      3 N           3.1670    3.2766    3.6885 N.ar    1  LIG1       -0.2369
      4 N           1.0700    0.5711    2.3002 N.pl3   1  LIG1        0.0580
      5 N           4.9669    3.9598   -0.7014 N.1     1  LIG1       -0.1908
      6 N           4.7024    4.7022    2.7442 N.pl3   1  LIG1       -0.3281
      7 C           2.2936    2.2856    3.5596 C.ar    1  LIG1        0.0599
      8 C           2.0519    1.6391    2.3540 C.ar    1  LIG1        0.1455
      9 C           2.7343    2.0195    1.2090 C.ar    1  LIG1       -0.0093
     10 C           3.6320    3.0628    1.3158 C.ar    1  LIG1        0.0935
     11 C           3.8418    3.6930    2.5879 C.ar    1  LIG1        0.1363
     12 C           4.3608    3.5343    0.1734 C.1     1  LIG1        0.1027
     13 C           4.9518    5.3170    4.0539 C.3     1  LIG1        0.0102
     14 C           5.7936    6.5716    3.9019 C.3     1  LIG1       -0.0403
     15 C           5.0514    7.7089    3.2210 C.3     1  LIG1       -0.0639
     16 H           1.8780    2.0894    4.3927 H       1  LIG1        0.0853
     17 H           2.6217    1.6320    0.3879 H       1  LIG1        0.0655
     18 H           5.1864    4.9201    2.0108 H       1  LIG1        0.1475
     19 H           4.1171    5.5430    4.4578 H       1  LIG1        0.0461
     20 H           5.4033    4.6893    4.6113 H       1  LIG1        0.0461
     21 H           6.5667    6.3551    3.3888 H       1  LIG1        0.0278
     22 H           6.0706    6.8589    4.7690 H       1  LIG1        0.0278
     23 H           4.2749    7.9347    3.7294 H       1  LIG1        0.0230
     24 H           5.6101    8.4697    3.1481 H       1  LIG1        0.0230
     25 H           4.7754    7.4340    2.3493 H       1  LIG1        0.0230
@<TRIPOS>BOND
     1     5    12    3
     2    12    10    1
     3    17     9    1
     4     9    10   ar
     5     9     8   ar
     6     2     4    2
     7    10    11   ar
     8    18     6    1
     9     4     8    1
    10     4     1    2
    11    25    15    1
    12     8     7   ar
    13    11     6    1
    14    11     3   ar
    15     6    13    1
    16    24    15    1
    17    15    23    1
    18    15    14    1
    19    21    14    1
    20     7     3   ar
    21     7    16    1
    22    14    13    1
    23    14    22    1
    24    13    19    1
    25    13    20    1
