@<TRIPOS>MOLECULE
?
 74 80 0 0 0
SMALL
GASTEIGER

@<TRIPOS>ATOM
      1 O           6.4155    1.8648    5.9173 O.2     1  LIG1       -0.2700
      2 N           6.7288    4.1002    5.7151 N.am    1  LIG1       -0.2904
      3 C           6.7921    2.9296    6.4006 C.2     1  LIG1        0.2474
      4 C           7.3608    3.0070    7.7810 C.ar    1  LIG1        0.0404
      5 C           6.6280    2.4794    8.8438 C.ar    1  LIG1       -0.0494
      6 H           5.7746    2.0925    8.6854 H       1  LIG1        0.0625
      7 C           7.1401    2.5178   10.1278 C.ar    1  LIG1       -0.0610
      8 H           6.6318    2.1784   10.8544 H       1  LIG1        0.0618
      9 C           8.4012    3.0550   10.3507 C.ar    1  LIG1       -0.0615
     10 H           8.7599    3.0746   11.2298 H       1  LIG1        0.0618
     11 C           9.1364    3.5615    9.2929 C.ar    1  LIG1       -0.0575
     12 H          10.0000    3.9224    9.4549 H       1  LIG1        0.0621
     13 C           8.6303    3.5508    7.9917 C.ar    1  LIG1       -0.0310
     14 C           9.4788    4.0180    6.8366 C.3     1  LIG1       -0.0014
     15 H           9.2427    3.4732    6.0447 H       1  LIG1        0.0362
     16 H          10.4249    3.8235    7.0547 H       1  LIG1        0.0362
     17 C           9.3792    5.4819    6.4453 C.ar    1  LIG1       -0.0381
     18 C          10.5791    6.1933    6.3644 C.ar    1  LIG1       -0.0579
     19 H          11.3922    5.7573    6.5893 H       1  LIG1        0.0620
     20 C          10.6101    7.5235    5.9628 C.ar    1  LIG1       -0.0615
     21 H          11.4354    7.9915    5.9237 H       1  LIG1        0.0618
     22 C           9.4432    8.1546    5.6241 C.ar    1  LIG1       -0.0614
     23 H           9.4558    9.0597    5.3372 H       1  LIG1        0.0618
     24 C           8.2389    7.4656    5.7021 C.ar    1  LIG1       -0.0565
     25 H           7.4358    7.9145    5.4660 H       1  LIG1        0.0621
     26 C           8.1728    6.1295    6.1192 C.ar    1  LIG1       -0.0235
     27 C           6.8232    5.4424    6.3376 C.3     1  LIG1        0.0518
     28 H           6.6699    5.3479    7.3216 H       1  LIG1        0.0550
     29 C           5.5978    6.1264    5.7159 C.3     1  LIG1       -0.0287
     30 H           4.7664    5.8657    6.1859 H       1  LIG1        0.0287
     31 H           5.6883    7.1124    5.7390 H       1  LIG1        0.0287
     32 C           5.6069    5.6063    4.2831 C.3     1  LIG1       -0.0351
     33 H           6.2722    6.0901    3.7329 H       1  LIG1        0.0281
     34 H           4.7143    5.6976    3.8648 H       1  LIG1        0.0281
     35 C           5.9901    4.1385    4.4423 C.3     1  LIG1        0.0157
     36 H           5.1846    3.5642    4.4823 H       1  LIG1        0.0465
     37 H           6.5616    3.8383    3.6910 H       1  LIG1        0.0465
     38 O           3.7858    3.2600    2.5142 O.2     2  LIG2       -0.2700
     39 N           2.9670    1.3617    1.5956 N.am    2  LIG2       -0.2904
     40 C           2.8681    2.6578    1.9610 C.2     2  LIG2        0.2474
     41 C           1.5793    3.3486    1.6430 C.ar    2  LIG2        0.0404
     42 C           0.9161    4.0275    2.6692 C.ar    2  LIG2       -0.0494
     43 H           1.2599    4.0019    3.5545 H       2  LIG2        0.0625
     44 C          -0.2363    4.7348    2.3965 C.ar    2  LIG2       -0.0610
     45 H          -0.6916    5.1927    3.0937 H       2  LIG2        0.0618
     46 C          -0.7275    4.7736    1.1022 C.ar    2  LIG2       -0.0615
     47 H          -1.5284    5.2484    0.9138 H       2  LIG2        0.0618
     48 C          -0.0522    4.1207    0.0762 C.ar    2  LIG2       -0.0575
     49 H          -0.3878    4.1714   -0.8114 H       2  LIG2        0.0621
     50 C           1.1104    3.3929    0.3305 C.ar    2  LIG2       -0.0310
     51 C           1.9347    2.8326   -0.8122 C.3     2  LIG2       -0.0014
     52 H           2.8874    2.9852   -0.5927 H       2  LIG2        0.0362
     53 H           1.7334    3.3750   -1.6151 H       2  LIG2        0.0362
     54 C           1.7874    1.3669   -1.2037 C.ar    2  LIG2       -0.0381
     55 C           1.7669    1.1057   -2.5774 C.ar    2  LIG2       -0.0579
     56 H           1.7818    1.8362   -3.1852 H       2  LIG2        0.0620
     57 C           1.7256   -0.1862   -3.0821 C.ar    2  LIG2       -0.0615
     58 H           1.7376   -0.3369   -4.0200 H       2  LIG2        0.0618
     59 C           1.6667   -1.2490   -2.2044 C.ar    2  LIG2       -0.0614
     60 H           1.6088   -2.1377   -2.5336 H       2  LIG2        0.0618
     61 C           1.6931   -1.0110   -0.8350 C.ar    2  LIG2       -0.0565
     62 H           1.6543   -1.7491   -0.2389 H       2  LIG2        0.0621
     63 C           1.7747    0.2823   -0.3080 C.ar    2  LIG2       -0.0235
     64 C           1.8416    0.4903    1.2052 C.3     2  LIG2        0.0518
     65 H           0.9825    0.8867    1.5282 H       2  LIG2        0.0550
     66 C           2.1725   -0.7663    2.0288 C.3     2  LIG2       -0.0287
     67 H           1.9001   -0.6554    2.9742 H       2  LIG2        0.0287
     68 H           1.7253   -1.5671    1.6539 H       2  LIG2        0.0287
     69 C           3.6917   -0.8738    1.9028 C.3     2  LIG2       -0.0351
     70 H           4.0731   -1.4115    2.6407 H       2  LIG2        0.0281
     71 H           3.9497   -1.2825    1.0395 H       2  LIG2        0.0281
     72 C           4.1571    0.5749    1.9828 C.3     2  LIG2        0.0157
     73 H           4.4470    0.8024    2.9013 H       2  LIG2        0.0465
     74 H           4.9082    0.7402    1.3591 H       2  LIG2        0.0465
@<TRIPOS>BOND
     1    58    57    1
     2    56    55    1
     3    57    55   ar
     4    57    59   ar
     5    55    54   ar
     6    60    59    1
     7    59    61   ar
     8    53    51    1
     9    54    51    1
    10    54    63   ar
    11    61    63   ar
    12    61    62    1
    13    51    52    1
    14    51    50    1
    15    49    48    1
    16    63    64    1
    17    48    50   ar
    18    48    46   ar
    19    50    41   ar
    20    47    46    1
    21    71    69    1
    22    46    44   ar
    23    64    65    1
    24    64    39    1
    25    64    66    1
    26    74    72    1
    27    39    40   am
    28    39    72    1
    29    41    40    1
    30    41    42   ar
    31    68    66    1
    32    69    72    1
    33    69    66    1
    34    69    70    1
    35    40    38    2
    36    72    73    1
    37    66    67    1
    38    44    42   ar
    39    44    45    1
    40    42    43    1
    41    37    35    1
    42    33    32    1
    43    34    32    1
    44    32    35    1
    45    32    29    1
    46    35    36    1
    47    35     2    1
    48    23    22    1
    49    25    24    1
    50    22    24   ar
    51    22    20   ar
    52    24    26   ar
    53     2    27    1
    54     2     3   am
    55    29    31    1
    56    29    30    1
    57    29    27    1
    58     1     3    2
    59    21    20    1
    60    20    18   ar
    61    15    14    1
    62    26    27    1
    63    26    17   ar
    64    27    28    1
    65    18    17   ar
    66    18    19    1
    67     3     4    1
    68    17    14    1
    69    14    16    1
    70    14    13    1
    71     4    13   ar
    72     4     5   ar
    73    13    11   ar
    74     6     5    1
    75     5     7   ar
    76    11    12    1
    77    11     9   ar
    78     7     9   ar
    79     7     8    1
    80     9    10    1
