@<TRIPOS>MOLECULE
9-(4-methoxyphenyl)-9H-xanthen-9-ol benzene clathrate
 45 47 0 0 0
SMALL
GASTEIGER

@<TRIPOS>ATOM
      1 O          -4.4870    0.4552    5.5868 O.3     1  LIG1       -0.3748
      2 H          -4.2216    1.1582    6.1675 H       1  LIG1        0.2115
      3 O          -2.3397    3.1831    4.5728 O.3     1  LIG1       -0.4552
      4 H          -2.0205   -1.2620    4.5002 H       1  LIG1        0.0623
      5 O          -5.6192   -3.4591    0.8437 O.3     1  LIG1       -0.4951
      6 H           0.2348   -1.1834    5.0679 H       1  LIG1        0.0618
      7 C          -2.3562    0.7502    4.5002 C.ar    1  LIG1        0.0352
      8 C          -1.6023   -0.4200    4.6385 C.ar    1  LIG1       -0.0517
      9 C          -0.2583   -0.3766    4.9731 C.ar    1  LIG1       -0.0612
     10 C          -0.1528   -0.9151    1.0171 C.3     1  LIG1       -0.0090
     11 C           0.3687    0.8507    5.1695 C.ar    1  LIG1       -0.0583
     12 H           1.2861    0.8812    5.4129 H       1  LIG1        0.0619
     13 C          -0.3434    2.0251    5.0115 C.ar    1  LIG1       -0.0189
     14 H           0.0827    2.8663    5.1254 H       1  LIG1        0.0654
     15 C          -1.6943    1.9577    4.6836 C.ar    1  LIG1        0.1350
     16 C          -4.3469    2.0552    3.7856 C.ar    1  LIG1        0.0352
     17 C          -5.5977    2.2049    3.1711 C.ar    1  LIG1       -0.0517
     18 H          -6.1136    1.4329    2.9694 H       1  LIG1        0.0623
     19 C          -6.0968    3.4576    2.8531 C.ar    1  LIG1       -0.0612
     20 H          -6.9509    3.5394    2.4459 H       1  LIG1        0.0618
     21 C          -5.3441    4.5968    3.1314 C.ar    1  LIG1       -0.0583
     22 H          -5.6927    5.4576    2.9299 H       1  LIG1        0.0619
     23 C          -4.0926    4.4757    3.6994 C.ar    1  LIG1       -0.0189
     24 H          -3.5680    5.2478    3.8761 H       1  LIG1        0.0654
     25 C          -3.6078    3.2074    4.0111 C.ar    1  LIG1        0.1350
     26 C          -3.8636    0.7052    4.3019 C.3     1  LIG1        0.1480
     27 C          -4.2978   -0.4351    3.3863 C.ar    1  LIG1       -0.0068
     28 C          -5.1706   -1.4345    3.8155 C.ar    1  LIG1       -0.0517
     29 H          -5.4812   -1.4355    4.7134 H       1  LIG1        0.0623
     30 C          -5.5882   -2.4272    2.9408 C.ar    1  LIG1       -0.0196
     31 H          -6.1818   -3.1044    3.2437 H       1  LIG1        0.0654
     32 C          -5.1443   -2.4366    1.6268 C.ar    1  LIG1        0.1201
     33 C          -4.2529   -1.4615    1.1862 C.ar    1  LIG1       -0.0196
     34 H          -3.9310   -1.4713    0.2923 H       1  LIG1        0.0654
     35 C          -3.8401   -0.4721    2.0752 C.ar    1  LIG1       -0.0517
     36 H          -3.2310    0.1940    1.7776 H       1  LIG1        0.0623
     37 C          -5.2391   -3.4608   -0.5286 C.3     1  LIG1        0.0788
     38 H          -5.4979   -2.6104   -0.9403 H       1  LIG1        0.0660
     39 H          -5.6891   -4.1981   -0.9918 H       1  LIG1        0.0660
     40 H          -4.2676   -3.5758   -0.5989 H       1  LIG1        0.0660
     41 C           0.0148    1.3456    0.2906 C.2     1  LIG1       -0.0657
     42 H           0.0217    2.2756    0.4863 H       1  LIG1        0.0614
     43 C          -0.1336    0.4314    1.3074 C.2     1  LIG1       -0.0798
     44 H          -0.2224    0.7270    2.2064 H       1  LIG1        0.0575
     45 H          -0.2618   -1.5494    1.7165 H       1  LIG1        0.0355
@<TRIPOS>BOND
     1    39    37    1
     2    38    37    1
     3    40    37    1
     4    37     5    1
     5    41    42    1
     6    41    43    2
     7    34    33    1
     8     5    32    1
     9    10    43    1
    10    10    45    1
    11    33    32   ar
    12    33    35   ar
    13    43    44    1
    14    32    30   ar
    15    36    35    1
    16    35    27   ar
    17    20    19    1
    18    19    21   ar
    19    19    17   ar
    20    22    21    1
    21    30    31    1
    22    30    28   ar
    23    18    17    1
    24    21    23   ar
    25    17    16   ar
    26    27    28   ar
    27    27    26    1
    28    23    24    1
    29    23    25   ar
    30    16    25   ar
    31    16    26    1
    32    28    29    1
    33    25     3    1
    34    26     7    1
    35    26     1    1
    36     4     8    1
    37     7     8   ar
    38     7    15   ar
    39     3    15    1
    40     8     9   ar
    41    15    13   ar
    42     9     6    1
    43     9    11   ar
    44    13    14    1
    45    13    11   ar
    46    11    12    1
    47     1     2    1
