@<TRIPOS>MOLECULE
?
 92 96 0 0 0
SMALL
GASTEIGER

@<TRIPOS>ATOM
      1 F          10.3966    0.1811    5.6186 F       1  LIG1       -0.1976
      2 F          11.4734   -0.8659    4.0714 F       1  LIG1       -0.1976
      3 O           8.0104    1.8710    2.4339 O.3     1  LIG1       -0.3828
      4 H           7.4745    2.4886    2.6249 H       1  LIG1        0.2104
      5 O          10.0674    0.0832    2.0795 O.3     1  LIG1       -0.3312
      6 O           8.8998   -1.7173    2.8195 O.3     1  LIG1       -0.3460
      7 O           9.7508    4.1089    2.9701 O.3     1  LIG1       -0.3650
      8 C           9.0717    1.8601    3.3705 C.3     1  LIG1        0.1298
      9 C           8.5783    2.3025    4.7382 C.3     1  LIG1       -0.0303
     10 H           8.1397    3.1750    4.6600 H       1  LIG1        0.0259
     11 H           9.3379    2.3722    5.3530 H       1  LIG1        0.0259
     12 H           7.9386    1.6447    5.0830 H       1  LIG1        0.0259
     13 C           9.6073    0.4165    3.3837 C.3     1  LIG1        0.1929
     14 C          10.8213    0.3125    4.3145 C.3     1  LIG1        0.3006
     15 C          11.7708    1.4353    4.2146 C.2     1  LIG1       -0.0144
     16 H          12.6162    1.3639    4.6418 H       1  LIG1        0.0629
     17 C          11.4817    2.5319    3.5512 C.2     1  LIG1       -0.0511
     18 H          12.1359    3.2209    3.5181 H       1  LIG1        0.0597
     19 C          10.1887    2.7583    2.8474 C.3     1  LIG1        0.1088
     20 H          10.3216    2.5588    1.8758 H       1  LIG1        0.0670
     21 C           8.5471   -0.6441    3.6814 C.3     1  LIG1        0.0889
     22 H           8.5813   -0.9241    4.6311 H       1  LIG1        0.0593
     23 H           7.6390   -0.3072    3.4771 H       1  LIG1        0.0593
     24 C           9.4762   -1.1504    1.6480 C.3     1  LIG1        0.1658
     25 C          10.5580   -2.0728    1.1623 C.3     1  LIG1       -0.0108
     26 H          11.2070   -2.2221    1.8804 H       1  LIG1        0.0281
     27 H          11.0096   -1.6689    0.3912 H       1  LIG1        0.0281
     28 H          10.1626   -2.9297    0.8977 H       1  LIG1        0.0281
     29 C           8.4238   -0.8584    0.6041 C.3     1  LIG1       -0.0108
     30 H           7.9603   -1.6891    0.3655 H       1  LIG1        0.0281
     31 H           8.8501   -0.4819   -0.1941 H       1  LIG1        0.0281
     32 H           7.7768   -0.2152    0.9629 H       1  LIG1        0.0281
     33 C          10.4269    5.0111    2.1034 C.3     1  LIG1        0.0736
     34 H          10.5846    4.5801    1.2268 H       1  LIG1        0.0610
     35 H          11.3040    5.2547    2.4915 H       1  LIG1        0.0610
     36 C           9.5956    6.2374    1.9216 C.ar    1  LIG1       -0.0219
     37 C          10.1112    7.4921    2.1677 C.ar    1  LIG1       -0.0564
     38 H          10.9925    7.5786    2.5112 H       1  LIG1        0.0621
     39 C           9.3635    8.6201    1.9210 C.ar    1  LIG1       -0.0614
     40 H           9.7312    9.4791    2.0927 H       1  LIG1        0.0618
     41 C           8.0916    8.5083    1.4289 C.ar    1  LIG1       -0.0617
     42 H           7.5764    9.2872    1.2526 H       1  LIG1        0.0618
     43 C           7.5634    7.2577    1.1907 C.ar    1  LIG1       -0.0614
     44 H           6.6806    7.1754    0.8507 H       1  LIG1        0.0618
     45 C           8.3042    6.1326    1.4414 C.ar    1  LIG1       -0.0564
     46 H           7.9282    5.2752    1.2844 H       1  LIG1        0.0621
     47 F          15.9444    2.8526    5.7550 F       2  LIG2       -0.1976
     48 F          16.4940    4.7992    6.4977 F       2  LIG2       -0.1976
     49 O          13.9301    6.3969    3.3954 O.3     2  LIG2       -0.3828
     50 H          13.6594    7.1915    3.4150 H       2  LIG2        0.2104
     51 O          14.4123    3.7288    3.8315 O.3     2  LIG2       -0.3312
     52 O          16.4864    3.7698    2.9255 O.3     2  LIG2       -0.3460
     53 O          12.2372    6.7671    5.6899 O.3     2  LIG2       -0.3650
     54 C          14.2502    5.9738    4.7133 C.3     2  LIG2        0.1298
     55 C          14.9713    7.0835    5.4559 C.3     2  LIG2       -0.0303
     56 H          15.8260    7.2685    5.0148 H       2  LIG2        0.0259
     57 H          15.1337    6.8047    6.3811 H       2  LIG2        0.0259
     58 H          14.4189    7.8929    5.4500 H       2  LIG2        0.0259
     59 C          15.1317    4.7225    4.5521 C.3     2  LIG2        0.1929
     60 C          15.4442    4.1164    5.9250 C.3     2  LIG2        0.3006
     61 C          14.3149    4.0880    6.8673 C.2     2  LIG2       -0.0144
     62 H          14.3882    3.5641    7.6564 H       2  LIG2        0.0629
     63 C          13.2074    4.7633    6.6525 C.2     2  LIG2       -0.0511
     64 H          12.5286    4.7360    7.3167 H       2  LIG2        0.0597
     65 C          12.9583    5.5713    5.4209 C.3     2  LIG2        0.1088
     66 H          12.4167    5.0165    4.7889 H       2  LIG2        0.0670
     67 C          16.3773    4.9563    3.6999 C.3     2  LIG2        0.0889
     68 H          16.2660    5.7501    3.1193 H       2  LIG2        0.0593
     69 H          17.1771    5.0830    4.2687 H       2  LIG2        0.0593
     70 C          15.1659    3.3074    2.6821 C.3     2  LIG2        0.1658
     71 C          14.5912    3.9349    1.4412 C.3     2  LIG2       -0.0108
     72 H          14.6297    4.9109    1.5210 H       2  LIG2        0.0281
     73 H          13.6590    3.6526    1.3344 H       2  LIG2        0.0281
     74 H          15.1101    3.6497    0.6612 H       2  LIG2        0.0281
     75 C          15.1909    1.8039    2.6305 C.3     2  LIG2       -0.0108
     76 H          15.7483    1.5125    1.8788 H       2  LIG2        0.0281
     77 H          14.2785    1.4659    2.5112 H       2  LIG2        0.0281
     78 H          15.5614    1.4543    3.4681 H       2  LIG2        0.0281
     79 C          10.8347    6.5699    5.8244 C.3     2  LIG2        0.0736
     80 H          10.6453    6.0289    6.6313 H       2  LIG2        0.0610
     81 H          10.4849    6.0840    5.0360 H       2  LIG2        0.0610
     82 C          10.1711    7.9059    5.9372 C.ar    2  LIG2       -0.0219
     83 C          10.7429    8.9457    6.6406 C.ar    2  LIG2       -0.0564
     84 H          11.5802    8.8176    7.0711 H       2  LIG2        0.0621
     85 C          10.1111   10.1735    6.7271 C.ar    2  LIG2       -0.0614
     86 H          10.5185   10.8854    7.2075 H       2  LIG2        0.0618
     87 C           8.8912   10.3631    6.1162 C.ar    2  LIG2       -0.0617
     88 H           8.4561   11.2057    6.1733 H       2  LIG2        0.0618
     89 C           8.3117    9.3380    5.4295 C.ar    2  LIG2       -0.0614
     90 H           7.4673    9.4652    5.0133 H       2  LIG2        0.0618
     91 C           8.9442    8.1186    5.3372 C.ar    2  LIG2       -0.0564
     92 H           8.5311    7.4133    4.8541 H       2  LIG2        0.0621
@<TRIPOS>BOND
     1    31    29    1
     2    30    29    1
     3    27    25    1
     4    29    32    1
     5    29    24    1
     6    74    71    1
     7    44    43    1
     8    28    25    1
     9    25    24    1
    10    25    26    1
    11    43    41   ar
    12    43    45   ar
    13    34    33    1
    14    42    41    1
    15    46    45    1
    16    73    71    1
    17    41    39   ar
    18    71    72    1
    19    71    70    1
    20    45    36   ar
    21    24     5    1
    22    24     6    1
    23    20    19    1
    24    76    75    1
    25    39    40    1
    26    39    37   ar
    27    36    33    1
    28    36    37   ar
    29     5    13    1
    30    33    35    1
    31    33     7    1
    32    37    38    1
    33     3     4    1
    34     3     8    1
    35    77    75    1
    36    75    70    1
    37    75    78    1
    38    70    52    1
    39    70    51    1
    40     6    21    1
    41    19     7    1
    42    19     8    1
    43    19    17    1
    44    52    67    1
    45    68    67    1
    46     8    13    1
    47     8     9    1
    48    13    21    1
    49    13    14    1
    50    49    50    1
    51    49    54    1
    52    23    21    1
    53    18    17    1
    54    17    15    2
    55    21    22    1
    56    67    69    1
    57    67    59    1
    58    51    59    1
    59     2    14    1
    60    15    14    1
    61    15    16    1
    62    14     1    1
    63    59    54    1
    64    59    60    1
    65    10     9    1
    66    54    65    1
    67    54    55    1
    68     9    12    1
    69     9    11    1
    70    66    65    1
    71    92    91    1
    72    90    89    1
    73    56    55    1
    74    81    79    1
    75    91    89   ar
    76    91    82   ar
    77    65    53    1
    78    65    63    1
    79    89    87   ar
    80    58    55    1
    81    55    57    1
    82    53    79    1
    83    47    60    1
    84    79    82    1
    85    79    80    1
    86    60    48    1
    87    60    61    1
    88    82    83   ar
    89    87    88    1
    90    87    85   ar
    91    83    85   ar
    92    83    84    1
    93    63    61    2
    94    63    64    1
    95    85    86    1
    96    61    62    1
