@<TRIPOS>MOLECULE
?
 58 60 0 0 0
SMALL
GASTEIGER

@<TRIPOS>ATOM
      1 C          -1.2520    6.0567   15.8556 C.2     1  LIG1        0.3120
      2 N           1.1234    6.9385   14.8213 N.3     1  LIG1       -0.2920
      3 O          -2.0720    6.9174   15.6709 O.2     1  LIG1       -0.2505
      4 C          -0.0863    6.1378   16.8133 C.3     1  LIG1        0.0759
      5 H          -0.1060    7.0278   17.2702 H       1  LIG1        0.0432
      6 O          -1.2520    4.8711   15.2283 O.3     1  LIG1       -0.4647
      7 C           1.2172    6.0299   15.9876 C.3     1  LIG1        0.0242
      8 H           1.2589    5.0974   15.6282 H       1  LIG1        0.0471
      9 C           2.4924    6.2508   16.8065 C.3     1  LIG1       -0.0365
     10 H           2.4643    5.6744   17.6109 H       1  LIG1        0.0281
     11 H           3.2758    5.9790   16.2665 H       1  LIG1        0.0281
     12 C           2.6637    7.6970   17.2372 C.3     1  LIG1       -0.0505
     13 H           3.5504    7.8127   17.6622 H       1  LIG1        0.0266
     14 H           1.9699    7.9271   17.9065 H       1  LIG1        0.0266
     15 C           2.5461    8.6355   16.0364 C.3     1  LIG1       -0.0401
     16 H           3.3285    8.5146   15.4434 H       1  LIG1        0.0278
     17 H           2.5387    9.5746   16.3486 H       1  LIG1        0.0278
     18 C           1.2606    8.3453   15.2566 C.3     1  LIG1       -0.0002
     19 H           0.4841    8.5793   15.8252 H       1  LIG1        0.0427
     20 H           1.2349    8.9289   14.4582 H       1  LIG1        0.0427
     21 C           2.0702    6.6037   13.7363 C.3     1  LIG1        0.0331
     22 H           3.0018    6.7599   14.0641 H       1  LIG1        0.0509
     23 C           1.9462    5.1431   13.2897 C.3     1  LIG1       -0.0453
     24 H           1.0047    4.9340   13.1138 H       1  LIG1        0.0248
     25 H           2.2851    4.5556   13.9964 H       1  LIG1        0.0248
     26 H           2.4687    5.0059   12.4713 H       1  LIG1        0.0248
     27 C          -0.1493    5.0301   17.8835 C.3     1  LIG1       -0.0133
     28 H           0.0040    4.1557   17.4447 H       1  LIG1        0.0322
     29 H           0.5844    5.1732   18.5325 H       1  LIG1        0.0322
     30 C          -1.4580    4.9712   18.6372 C.ar    1  LIG1       -0.0465
     31 C          -2.3620    3.9446   18.4287 C.ar    1  LIG1       -0.0586
     32 H          -2.1707    3.2741   17.7833 H       1  LIG1        0.0620
     33 C          -3.5469    3.8832   19.1520 C.ar    1  LIG1       -0.0615
     34 H          -4.1569    3.1715   18.9985 H       1  LIG1        0.0618
     35 C          -3.8396    4.8471   20.0871 C.ar    1  LIG1       -0.0617
     36 H          -4.6475    4.8000   20.5851 H       1  LIG1        0.0618
     37 C          -2.9544    5.8822   20.2987 C.ar    1  LIG1       -0.0615
     38 H          -3.1570    6.5547   20.9381 H       1  LIG1        0.0618
     39 C          -1.7675    5.9450   19.5804 C.ar    1  LIG1       -0.0586
     40 H          -1.1622    6.6606   19.7353 H       1  LIG1        0.0620
     41 C           1.8209    7.5016   12.5393 C.ar    1  LIG1       -0.0305
     42 C           2.8672    8.2212   11.9847 C.ar    1  LIG1       -0.0571
     43 H           3.7281    8.1793   12.3851 H       1  LIG1        0.0621
     44 C           2.6778    9.0001   10.8562 C.ar    1  LIG1       -0.0615
     45 H           3.4069    9.4850   10.4865 H       1  LIG1        0.0618
     46 C           1.4398    9.0727   10.2714 C.ar    1  LIG1       -0.0617
     47 H           1.3104    9.6059    9.4972 H       1  LIG1        0.0618
     48 C           0.3788    8.3662   10.8131 C.ar    1  LIG1       -0.0615
     49 H          -0.4805    8.4166   10.4106 H       1  LIG1        0.0618
     50 C           0.5701    7.5820   11.9473 C.ar    1  LIG1       -0.0571
     51 H          -0.1598    7.0997   12.3174 H       1  LIG1        0.0621
     52 C          -2.2546    4.7000   14.1977 C.3     1  LIG1        0.0897
     53 H          -2.2669    5.4875   13.5982 H       1  LIG1        0.0694
     54 H          -3.1512    4.6007   14.6060 H       1  LIG1        0.0694
     55 C          -1.8970    3.4675   13.4266 C.3     1  LIG1       -0.0306
     56 H          -1.9454    2.6872   14.0169 H       1  LIG1        0.0262
     57 H          -0.9859    3.5551   13.0748 H       1  LIG1        0.0262
     58 H          -2.5246    3.3545   12.6827 H       1  LIG1        0.0262
@<TRIPOS>BOND
     1    47    46    1
     2    46    48   ar
     3    46    44   ar
     4    49    48    1
     5    45    44    1
     6    48    50   ar
     7    44    42   ar
     8    50    51    1
     9    50    41   ar
    10    42    43    1
    11    42    41   ar
    12    26    23    1
    13    41    21    1
    14    58    55    1
    15    57    55    1
    16    24    23    1
    17    23    21    1
    18    23    25    1
    19    55    56    1
    20    55    52    1
    21    53    52    1
    22    21    22    1
    23    21     2    1
    24    52    54    1
    25    52     6    1
    26    20    18    1
    27     2    18    1
    28     2     7    1
    29     6     1    1
    30    18    19    1
    31    18    15    1
    32    16    15    1
    33     8     7    1
    34     3     1    2
    35     1     4    1
    36     7     9    1
    37     7     4    1
    38    15    17    1
    39    15    12    1
    40    11     9    1
    41     9    12    1
    42     9    10    1
    43     4     5    1
    44     4    27    1
    45    12    13    1
    46    12    14    1
    47    28    27    1
    48    32    31    1
    49    27    29    1
    50    27    30    1
    51    31    30   ar
    52    31    33   ar
    53    30    39   ar
    54    34    33    1
    55    33    35   ar
    56    39    40    1
    57    39    37   ar
    58    35    37   ar
    59    35    36    1
    60    37    38    1
