@<TRIPOS>MOLECULE
?
 68 73 0 0 0
SMALL
GASTEIGER

@<TRIPOS>ATOM
      1 N           3.8490   10.8006    5.4315 N.am    1  LIG1       -0.2447
      2 N          -0.3894    8.4830    2.4237 N.3     1  LIG1       -0.2741
      3 O           1.4035    9.6254    1.6540 O.3     1  LIG1       -0.3588
      4 O           3.5721   12.6627    6.7364 O.2     1  LIG1       -0.2748
      5 O           3.7573    9.2171    3.7863 O.2     1  LIG1       -0.2748
      6 C          -1.2302   11.3471    2.5390 C.ar    1  LIG1       -0.0573
      7 H          -1.2501   10.6325    1.9132 H       1  LIG1        0.0621
      8 C          -1.8604    8.4654   -0.3327 C.ar    1  LIG1       -0.0458
      9 C          -2.1387   12.4037    2.4315 C.ar    1  LIG1       -0.0615
     10 H          -2.7851   12.3910    1.7358 H       1  LIG1        0.0618
     11 C           0.8634    9.1178    2.8657 C.3     1  LIG1        0.1264
     12 H           1.4756    8.4179    3.2309 H       1  LIG1        0.0781
     13 C          -1.5306    8.9130   -1.6119 C.ar    1  LIG1       -0.0585
     14 H          -0.8386    8.4749   -2.0954 H       1  LIG1        0.0620
     15 C          -2.1181   13.4613    3.3101 C.ar    1  LIG1       -0.0615
     16 H          -2.7410   14.1727    3.2179 H       1  LIG1        0.0618
     17 C          -2.1919    9.9833   -2.1912 C.ar    1  LIG1       -0.0615
     18 H          -1.9493   10.2757   -3.0617 H       1  LIG1        0.0618
     19 C          -1.1720   13.4824    4.3423 C.ar    1  LIG1       -0.0577
     20 H          -1.1425   14.2118    4.9504 H       1  LIG1        0.0621
     21 C           0.0511    7.7403    1.2305 C.3     1  LIG1        0.0398
     22 H           0.5275    6.9138    1.5308 H       1  LIG1        0.0489
     23 C          -3.2085   10.6282   -1.5012 C.ar    1  LIG1       -0.0617
     24 H          -3.6600   11.3661   -1.8936 H       1  LIG1        0.0618
     25 C           0.6033   10.8108    7.5851 C.ar    1  LIG1       -0.0577
     26 H           0.5722   11.5624    8.1667 H       1  LIG1        0.0621
     27 C           1.0736    8.6913    0.6216 C.3     1  LIG1        0.0656
     28 H           1.8798    8.1963    0.3302 H       1  LIG1        0.0576
     29 H           0.6891    9.1600   -0.1611 H       1  LIG1        0.0576
     30 C          -3.5581   10.1881   -0.2388 C.ar    1  LIG1       -0.0615
     31 H          -4.2565   10.6230    0.2359 H       1  LIG1        0.0618
     32 C           0.6047    9.5284    8.1013 C.ar    1  LIG1       -0.0615
     33 H           0.5408    9.3954    9.0403 H       1  LIG1        0.0618
     34 C          -2.8959    9.1167    0.3384 C.ar    1  LIG1       -0.0585
     35 H          -3.1512    8.8211    1.2039 H       1  LIG1        0.0620
     36 C           0.6996    8.4433    7.2571 C.ar    1  LIG1       -0.0615
     37 H           0.7294    7.5661    7.6217 H       1  LIG1        0.0618
     38 C           0.7509    8.6164    5.8724 C.ar    1  LIG1       -0.0573
     39 H           0.8330    7.8638    5.2986 H       1  LIG1        0.0621
     40 C           0.7886   10.2947    3.8590 C.3     1  LIG1        0.0726
     41 C           0.7775   12.3287    5.5384 C.3     1  LIG1        0.0216
     42 H           0.7299   13.0876    6.1885 H       1  LIG1        0.0405
     43 C          -0.2920   11.3523    3.5751 C.ar    1  LIG1       -0.0286
     44 C          -0.2793   12.4300    4.4686 C.ar    1  LIG1       -0.0350
     45 C           0.6477   10.9913    6.2142 C.ar    1  LIG1       -0.0350
     46 C           0.6820    9.8999    5.3432 C.ar    1  LIG1       -0.0286
     47 C           2.1493   12.2833    4.7843 C.3     1  LIG1        0.0592
     48 H           2.3187   13.1436    4.3030 H       1  LIG1        0.0411
     49 C          -1.1000    7.3244    0.2959 C.3     1  LIG1       -0.0098
     50 H          -0.7283    6.7586   -0.4262 H       1  LIG1        0.0329
     51 H          -1.7371    6.7692    0.8102 H       1  LIG1        0.0329
     52 C           2.1644   11.0948    3.8008 C.3     1  LIG1        0.0653
     53 H           2.3322   11.4220    2.8714 H       1  LIG1        0.0415
     54 C           3.2618   11.9930    5.7731 C.2     1  LIG1        0.2263
     55 C           3.3288   10.2345    4.2695 C.2     1  LIG1        0.2267
     56 C           4.8960   10.1543    6.2111 C.3     1  LIG1        0.0108
     57 H           5.6256    9.8830    5.6158 H       1  LIG1        0.0433
     58 H           4.5288    9.3647    6.6602 H       1  LIG1        0.0433
     59 H           5.2382   10.7823    6.8815 H       1  LIG1        0.0433
     60 C          -1.0411    7.6136    3.3882 C.3     1  LIG1       -0.0101
     61 H          -1.8598    7.2452    2.9950 H       1  LIG1        0.0392
     62 H          -1.2672    8.1277    4.1907 H       1  LIG1        0.0392
     63 H          -0.4359    6.8811    3.6295 H       1  LIG1        0.0392
     64 CL          5.1722   -0.0927   10.1843 Cl      1  LIG1       -0.1083
     65 CL          2.4895    0.8230   10.8757 Cl      1  LIG1       -0.1083
     66 C           3.5072    0.1383    9.6173 C.3     1  LIG1        0.0970
     67 H           3.5094    0.7420    8.8321 H       1  LIG1        0.0597
     68 H           3.1345   -0.7336    9.3315 H       1  LIG1        0.0597
@<TRIPOS>BOND
     1    18    17    1
     2    17    13   ar
     3    17    23   ar
     4    14    13    1
     5    24    23    1
     6    13     8   ar
     7    23    30   ar
     8    50    49    1
     9     8    49    1
    10     8    34   ar
    11    30    31    1
    12    30    34   ar
    13    29    27    1
    14    49    51    1
    15    49    21    1
    16    28    27    1
    17    34    35    1
    18    27    21    1
    19    27     3    1
    20    21    22    1
    21    21     2    1
    22     3    11    1
    23    10     9    1
    24     7     6    1
    25     2    11    1
    26     2    60    1
    27     9     6   ar
    28     9    15   ar
    29     6    43   ar
    30    11    12    1
    31    11    40    1
    32    53    52    1
    33    61    60    1
    34    16    15    1
    35    15    19   ar
    36    60    63    1
    37    60    62    1
    38    43    40    1
    39    43    44   ar
    40     5    55    2
    41    52    40    1
    42    52    55    1
    43    52    47    1
    44    40    46    1
    45    55     1   am
    46    48    47    1
    47    19    44   ar
    48    19    20    1
    49    44    41    1
    50    47    41    1
    51    47    54    1
    52    39    38    1
    53    46    38   ar
    54    46    45   ar
    55     1    54   am
    56     1    56    1
    57    41    42    1
    58    41    45    1
    59    57    56    1
    60    54     4    2
    61    38    36   ar
    62    56    58    1
    63    56    59    1
    64    45    25   ar
    65    36    37    1
    66    36    32   ar
    67    25    32   ar
    68    25    26    1
    69    32    33    1
    70    67    66    1
    71    68    66    1
    72    66    64    1
    73    66    65    1
