@<TRIPOS>MOLECULE
?
 58 62 0 0 0
SMALL
GASTEIGER

@<TRIPOS>ATOM
      1 C           0.5429   -0.5722    1.9952 C.ar    1  LIG1        0.0722
      2 C          -0.0401    0.5789    2.5121 C.ar    1  LIG1       -0.0277
      3 H          -0.6887    0.5114    3.1749 H       1  LIG1        0.0645
      4 C           0.3417    1.8292    2.0430 C.ar    1  LIG1       -0.0107
      5 C           1.3434    1.8989    1.0702 C.ar    1  LIG1       -0.0140
      6 C           1.9085    0.6944    0.6184 C.ar    1  LIG1        0.0715
      7 C           2.9998    0.6925   -0.3820 C.2     1  LIG1       -0.0211
      8 C           3.7980    1.9744   -0.5504 C.3     1  LIG1       -0.0253
      9 H           3.6701    2.3063   -1.4524 H       1  LIG1        0.0314
     10 H           4.7408    1.7725   -0.4411 H       1  LIG1        0.0314
     11 C           3.4130    3.0670    0.4335 C.3     1  LIG1       -0.0449
     12 H           3.7852    2.8607    1.3046 H       1  LIG1        0.0272
     13 H           3.7879    3.9121    0.1390 H       1  LIG1        0.0272
     14 C           1.9073    3.1974    0.5483 C.3     1  LIG1       -0.0248
     15 H           1.6831    3.9215    1.1535 H       1  LIG1        0.0314
     16 H           1.5258    3.3979   -0.3209 H       1  LIG1        0.0314
     17 C           3.2009   -0.4204   -1.1154 C.2     1  LIG1       -0.0494
     18 H           2.6211   -1.1161   -0.9054 H       1  LIG1        0.0627
     19 C           4.1500   -0.7475   -2.1748 C.ar    1  LIG1       -0.0247
     20 C           3.9261   -1.9144   -2.9070 C.ar    1  LIG1       -0.0543
     21 H           3.1803   -2.4325   -2.7085 H       1  LIG1        0.0624
     22 C           4.7769   -2.3276   -3.9192 C.ar    1  LIG1       -0.0583
     23 H           4.5834   -3.1072   -4.3880 H       1  LIG1        0.0620
     24 C           5.9097   -1.6027   -4.2458 C.ar    1  LIG1       -0.0504
     25 C           6.1467   -0.4542   -3.5219 C.ar    1  LIG1       -0.0583
     26 H           6.9036    0.0511   -3.7164 H       1  LIG1        0.0620
     27 C           5.3007   -0.0291   -2.5190 C.ar    1  LIG1       -0.0543
     28 H           5.5001    0.7545   -2.0600 H       1  LIG1        0.0624
     29 C           6.8467   -2.0578   -5.3322 C.3     1  LIG1       -0.0397
     30 H           7.5027   -1.3768   -5.4952 H       1  LIG1        0.0278
     31 H           6.3488   -2.2213   -6.1359 H       1  LIG1        0.0278
     32 H           7.2863   -2.8658   -5.0574 H       1  LIG1        0.0278
     33 C           0.1537   -1.9331    2.4603 C.ar    1  LIG1        0.0004
     34 C           1.0054   -3.0093    2.2340 C.ar    1  LIG1       -0.0526
     35 H           1.8170   -2.8681    1.8031 H       1  LIG1        0.0624
     36 C           0.6664   -4.2780    2.6390 C.ar    1  LIG1       -0.0611
     37 H           1.2461   -4.9865    2.4758 H       1  LIG1        0.0618
     38 C          -0.5285   -4.5050    3.2841 C.ar    1  LIG1       -0.0617
     39 H          -0.7524   -5.3639    3.5631 H       1  LIG1        0.0618
     40 C          -1.3877   -3.4599    3.5124 C.ar    1  LIG1       -0.0611
     41 H          -2.1997   -3.6104    3.9414 H       1  LIG1        0.0618
     42 C          -1.0490   -2.1816    3.1039 C.ar    1  LIG1       -0.0526
     43 H          -1.6352   -1.4775    3.2643 H       1  LIG1        0.0624
     44 C          -0.3076    3.0482    2.6030 C.ar    1  LIG1       -0.0175
     45 C          -0.9058    3.9977    1.7861 C.ar    1  LIG1       -0.0538
     46 H          -0.9217    3.8656    0.8657 H       1  LIG1        0.0624
     47 C          -1.4773    5.1379    2.3214 C.ar    1  LIG1       -0.0583
     48 H          -1.8850    5.7521    1.7545 H       1  LIG1        0.0620
     49 C          -1.4565    5.3833    3.6767 C.ar    1  LIG1       -0.0504
     50 C          -0.8901    4.4268    4.4972 C.ar    1  LIG1       -0.0583
     51 H          -0.8839    4.5600    5.4180 H       1  LIG1        0.0620
     52 C          -0.3312    3.2732    3.9739 C.ar    1  LIG1       -0.0538
     53 H           0.0352    2.6402    4.5490 H       1  LIG1        0.0624
     54 C          -1.9830    6.6764    4.2458 C.3     1  LIG1       -0.0397
     55 H          -1.9802    6.6286    5.2041 H       1  LIG1        0.0278
     56 H          -2.8796    6.8210    3.9348 H       1  LIG1        0.0278
     57 H          -1.4238    7.4030    3.9601 H       1  LIG1        0.0278
     58 N           1.5043   -0.5089    1.0709 N.ar    1  LIG1       -0.2467
@<TRIPOS>BOND
     1    31    29    1
     2    30    29    1
     3    29    32    1
     4    29    24    1
     5    23    22    1
     6    24    22   ar
     7    24    25   ar
     8    22    20   ar
     9    26    25    1
    10    25    27   ar
    11    20    21    1
    12    20    19   ar
    13    27    19   ar
    14    27    28    1
    15    19    17    1
    16     9     8    1
    17    17    18    1
    18    17     7    2
    19     8    10    1
    20     8     7    1
    21     8    11    1
    22     7     6    1
    23    16    14    1
    24    13    11    1
    25    11    14    1
    26    11    12    1
    27    14     5    1
    28    14    15    1
    29     6     5   ar
    30     6    58   ar
    31    46    45    1
    32     5     4   ar
    33    58     1   ar
    34    48    47    1
    35    45    47   ar
    36    45    44   ar
    37    35    34    1
    38     1    33    1
    39     1     2   ar
    40     4     2   ar
    41     4    44    1
    42    34    33   ar
    43    34    36   ar
    44    47    49   ar
    45    33    42   ar
    46    37    36    1
    47     2     3    1
    48    44    52   ar
    49    36    38   ar
    50    42    43    1
    51    42    40   ar
    52    38    40   ar
    53    38    39    1
    54    40    41    1
    55    49    54    1
    56    49    50   ar
    57    56    54    1
    58    57    54    1
    59    52    50   ar
    60    52    53    1
    61    54    55    1
    62    50    51    1
