@<TRIPOS>MOLECULE
?
 44 44 0 0 0
SMALL
GASTEIGER

@<TRIPOS>ATOM
      1 F           6.8707    7.6882    0.9521 F       1  LIG1       -0.1902
      2 F           7.9526    5.0944    0.9003 F       1  LIG1       -0.2308
      3 F          10.1113    7.5686   -0.3629 F       1  LIG1       -0.1949
      4 O           9.9686    9.0051    2.1331 O.3     1  LIG1       -0.4099
      5 O           8.9362   10.9621    2.6675 O.2     1  LIG1       -0.2258
      6 F           8.1410    9.2450    0.0949 F       1  LIG1       -0.1902
      7 F           8.2093    6.8388   -1.1374 F       1  LIG1       -0.1949
      8 O          11.1303    6.2351    1.8770 O.2     1  LIG1       -0.2941
      9 N          11.1993   10.8422    2.4431 N.am    1  LIG1       -0.2676
     10 C          10.0251    5.7466    1.9498 C.2     1  LIG1        0.1731
     11 C           9.4926    5.0700    3.1836 C.3     1  LIG1        0.0090
     12 H           9.6831    4.1002    3.1216 H       1  LIG1        0.0343
     13 H           8.5098    5.1813    3.2080 H       1  LIG1        0.0343
     14 C           9.9586   10.3537    2.4443 C.2     1  LIG1        0.4080
     15 C           9.1662    6.5439    5.2790 C.3     1  LIG1       -0.0491
     16 H           9.5469    6.6720    6.1838 H       1  LIG1        0.0268
     17 H           8.2859    6.1037    5.3858 H       1  LIG1        0.0268
     18 C           8.7423    8.3507    2.1990 C.2     1  LIG1        0.1810
     19 C           8.1552    8.1028    0.8414 C.3     1  LIG1        0.3697
     20 C           8.9166    7.0443    0.0068 C.3     1  LIG1        0.3548
     21 C          12.3908   10.0152    2.2305 C.3     1  LIG1        0.0150
     22 H          12.2410    9.1228    2.6328 H       1  LIG1        0.0463
     23 H          13.1606   10.4314    2.6936 H       1  LIG1        0.0463
     24 C           9.1771    5.6890    0.6671 C.3     1  LIG1        0.2272
     25 H           9.6669    5.1202    0.0068 H       1  LIG1        0.0795
     26 C           8.9442    7.9215    4.6465 C.3     1  LIG1       -0.0311
     27 H           8.3953    8.4734    5.2575 H       1  LIG1        0.0308
     28 H           9.8189    8.3713    4.5339 H       1  LIG1        0.0308
     29 C           8.2616    7.8378    3.3151 C.2     1  LIG1       -0.0395
     30 H           7.4273    7.3857    3.2715 H       1  LIG1        0.0607
     31 C          11.3628   12.2853    2.6452 C.3     1  LIG1        0.0150
     32 H          10.5879   12.7557    2.2467 H       1  LIG1        0.0463
     33 H          12.1770   12.5869    2.1697 H       1  LIG1        0.0463
     34 C          10.0835    5.6061    4.4985 C.3     1  LIG1       -0.0460
     35 H          10.3134    4.8361    5.0780 H       1  LIG1        0.0269
     36 H          10.9241    6.0870    4.2935 H       1  LIG1        0.0269
     37 C          11.4734   12.6700    4.1022 C.3     1  LIG1       -0.0492
     38 H          10.6991   12.3217    4.5919 H       1  LIG1        0.0245
     39 H          11.4976   13.6470    4.1815 H       1  LIG1        0.0245
     40 H          12.2954   12.2917    4.4785 H       1  LIG1        0.0245
     41 C          12.7271    9.8468    0.7593 C.3     1  LIG1       -0.0492
     42 H          11.9960    9.3747    0.3092 H       1  LIG1        0.0245
     43 H          13.5546    9.3292    0.6710 H       1  LIG1        0.0245
     44 H          12.8483   10.7289    0.3483 H       1  LIG1        0.0245
@<TRIPOS>BOND
     1     7    20    1
     2     3    20    1
     3    25    24    1
     4    20    24    1
     5    20    19    1
     6     6    19    1
     7    42    41    1
     8    44    41    1
     9    24     2    1
    10    24    10    1
    11    43    41    1
    12    41    21    1
    13    19     1    1
    14    19    18    1
    15     8    10    2
    16    10    11    1
    17     4    18    1
    18     4    14    1
    19    33    31    1
    20    18    29    2
    21    21     9    1
    22    21    22    1
    23    21    23    1
    24    32    31    1
    25     9    14   am
    26     9    31    1
    27    14     5    2
    28    31    37    1
    29    12    11    1
    30    11    13    1
    31    11    34    1
    32    30    29    1
    33    29    26    1
    34    37    39    1
    35    37    40    1
    36    37    38    1
    37    36    34    1
    38    34    35    1
    39    34    15    1
    40    28    26    1
    41    26    27    1
    42    26    15    1
    43    15    17    1
    44    15    16    1
