@<TRIPOS>MOLECULE
?
 33 35 0 0 0
SMALL
GASTEIGER

@<TRIPOS>ATOM
      1 BR         10.3486    3.8558    9.8823 Br      1  LIG1       -0.0499
      2 BR          7.5700    6.6673    5.9248 Br      1  LIG1       -0.0502
      3 C           6.8815    5.4255   13.6861 C.2     1  LIG1        0.2161
      4 C           6.7117    4.0123   13.1853 C.3     1  LIG1        0.0262
      5 H           5.8593    3.9146   12.6903 H       1  LIG1        0.0359
      6 H           6.7198    3.3695   13.9387 H       1  LIG1        0.0359
      7 C           7.9087    3.7767   12.2567 C.3     1  LIG1       -0.0218
      8 H           7.6262    3.3001   11.4347 H       1  LIG1        0.0291
      9 H           8.6060    3.2417   12.7122 H       1  LIG1        0.0291
     10 C           8.4385    5.1969   11.9149 C.3     1  LIG1        0.0529
     11 H           9.4312    5.1924   12.0392 H       1  LIG1        0.0551
     12 C           8.1478    5.6221   10.4805 C.ar    1  LIG1       -0.0098
     13 C           8.9477    5.0859    9.4608 C.ar    1  LIG1        0.0241
     14 C           8.8076    5.3671    8.1264 C.ar    1  LIG1       -0.0334
     15 H           9.3834    4.9829    7.4752 H       1  LIG1        0.0640
     16 C           7.7911    6.2320    7.7672 C.ar    1  LIG1        0.0192
     17 C           6.9499    6.7734    8.7060 C.ar    1  LIG1       -0.0442
     18 H           6.2536    7.3567    8.4286 H       1  LIG1        0.0631
     19 C           7.1010    6.4790   10.0667 C.ar    1  LIG1       -0.0403
     20 C           6.1341    7.1599   11.0128 C.3     1  LIG1       -0.0272
     21 H           5.9101    6.5358   11.7486 H       1  LIG1        0.0313
     22 H           5.2972    7.3647   10.5252 H       1  LIG1        0.0313
     23 C           6.6939    8.4625   11.6143 C.3     1  LIG1       -0.0476
     24 H           6.6540    9.1704   10.9237 H       1  LIG1        0.0269
     25 H           6.1084    8.7420   12.3618 H       1  LIG1        0.0269
     26 C           8.1131    8.3694   12.1253 C.3     1  LIG1       -0.0368
     27 H           8.3970    9.2669   12.4334 H       1  LIG1        0.0280
     28 H           8.7029    8.1127   11.3720 H       1  LIG1        0.0280
     29 C           8.3202    7.3769   13.2656 C.3     1  LIG1        0.0153
     30 H           9.2851    7.3418   13.4846 H       1  LIG1        0.0465
     31 H           7.8427    7.7092   14.0657 H       1  LIG1        0.0465
     32 O           6.2318    5.9646   14.5787 O.2     1  LIG1       -0.2756
     33 N           7.8576    6.0225   12.9729 N.am    1  LIG1       -0.2943
@<TRIPOS>BOND
     1     2    16    1
     2    15    14    1
     3    16    14   ar
     4    16    17   ar
     5    14    13   ar
     6    18    17    1
     7    17    19   ar
     8    13     1    1
     9    13    12   ar
    10    19    12   ar
    11    19    20    1
    12    12    10    1
    13    22    20    1
    14    24    23    1
    15    20    23    1
    16    20    21    1
    17    28    26    1
    18     8     7    1
    19    23    26    1
    20    23    25    1
    21    10    11    1
    22    10     7    1
    23    10    33    1
    24    26    27    1
    25    26    29    1
    26     7     9    1
    27     7     4    1
    28     5     4    1
    29    33    29    1
    30    33     3   am
    31     4     3    1
    32     4     6    1
    33    29    30    1
    34    29    31    1
    35     3    32    2
