@<TRIPOS>MOLECULE
?
 49 53 0 0 0
SMALL
GASTEIGER

@<TRIPOS>ATOM
      1 O           6.7619   12.4942    9.0824 O.3     1  LIG1       -0.2187
      2 N           5.5024   11.7636    9.0191 N.4     1  LIG1       -0.2374
      3 C           5.8285   10.5974    8.1683 C.3     1  LIG1        0.1262
      4 H           5.3028    9.8143    8.4346 H       1  LIG1        0.0634
      5 C           7.3226   10.3377    8.3547 C.3     1  LIG1        0.0497
      6 H           7.4751    9.5108    8.8372 H       1  LIG1        0.0358
      7 H           7.7778   10.2928    7.4983 H       1  LIG1        0.0358
      8 C           7.7936   11.5396    9.1630 C.3     1  LIG1        0.2680
      9 C           4.9576   11.5947   10.3302 C.ar    1  LIG1        0.0655
     10 C           4.9753   12.6851   11.1941 C.ar    1  LIG1       -0.0362
     11 H           5.4046   13.4702   10.9410 H       1  LIG1        0.0639
     12 C           4.3567   12.6047   12.4253 C.ar    1  LIG1       -0.0598
     13 H           4.3810   13.3349   13.0006 H       1  LIG1        0.0618
     14 C           3.7033   11.4533   12.8120 C.ar    1  LIG1       -0.0616
     15 H           3.2881   11.4028   13.6426 H       1  LIG1        0.0618
     16 C           3.6737   10.3841   11.9535 C.ar    1  LIG1       -0.0598
     17 H           3.2290    9.6069   12.2056 H       1  LIG1        0.0618
     18 C           4.2971   10.4444   10.7137 C.ar    1  LIG1       -0.0362
     19 H           4.2689    9.7108   10.1428 H       1  LIG1        0.0639
     20 C           5.4479   11.0543    6.7508 C.2     1  LIG1        0.1880
     21 O           6.2958   11.5546    6.0349 O.2     1  LIG1       -0.2898
     22 C           4.0364   10.9393    6.3174 C.ar    1  LIG1        0.0198
     23 C           3.1113   10.0941    6.9233 C.ar    1  LIG1       -0.0477
     24 H           3.3653    9.5918    7.6637 H       1  LIG1        0.0626
     25 C           1.8251    9.9919    6.4394 C.ar    1  LIG1       -0.0193
     26 H           1.2210    9.4142    6.8487 H       1  LIG1        0.0654
     27 C           1.4255   10.7449    5.3482 C.ar    1  LIG1        0.1201
     28 C           2.3323   11.5847    4.7202 C.ar    1  LIG1       -0.0193
     29 H           2.0767   12.0828    3.9780 H       1  LIG1        0.0654
     30 C           3.6180   11.6723    5.2105 C.ar    1  LIG1       -0.0477
     31 H           4.2240   12.2379    4.7887 H       1  LIG1        0.0626
     32 O           0.1263   10.5867    4.9737 O.3     1  LIG1       -0.4951
     33 C          -0.4070   11.4561    3.9727 C.3     1  LIG1        0.0788
     34 H          -1.3260   11.2310    3.8100 H       1  LIG1        0.0660
     35 H           0.0962   11.3559    3.1615 H       1  LIG1        0.0660
     36 H          -0.3487   12.3654    4.2753 H       1  LIG1        0.0660
     37 O           7.9756   11.1302   10.5565 O.3     1  LIG1       -0.4224
     38 C           9.2421   11.4123   10.9765 C.2     1  LIG1        0.3423
     39 C           9.9597   12.0571    9.8781 C.ar    1  LIG1        0.0685
     40 C           9.0966   12.1719    8.8064 C.ar    1  LIG1        0.0394
     41 O           9.6037   11.1271   12.0910 O.2     1  LIG1       -0.2449
     42 C          11.2715   12.5016    9.8153 C.ar    1  LIG1       -0.0473
     43 H          11.8469   12.4179   10.5413 H       1  LIG1        0.0626
     44 C          11.6877   13.0731    8.6315 C.ar    1  LIG1       -0.0610
     45 H          12.5674   13.3610    8.5442 H       1  LIG1        0.0618
     46 C          10.8126   13.2237    7.5694 C.ar    1  LIG1       -0.0613
     47 H          11.1140   13.6329    6.7906 H       1  LIG1        0.0618
     48 C           9.5009   12.7820    7.6362 C.ar    1  LIG1       -0.0515
     49 H           8.9173   12.8919    6.9209 H       1  LIG1        0.0623
@<TRIPOS>BOND
     1    35    33    1
     2    34    33    1
     3    33    36    1
     4    33    32    1
     5    29    28    1
     6    28    30   ar
     7    28    27   ar
     8    31    30    1
     9    32    27    1
    10    30    22   ar
    11    27    25   ar
    12    21    20    2
    13    22    20    1
    14    22    23   ar
    15    25    26    1
    16    25    23   ar
    17    20     3    1
    18    47    46    1
    19    49    48    1
    20    23    24    1
    21     7     5    1
    22    46    48   ar
    23    46    44   ar
    24    48    40   ar
    25     3     5    1
    26     3     4    1
    27     3     2    1
    28     5     6    1
    29     5     8    1
    30    45    44    1
    31    44    42   ar
    32    40     8    1
    33    40    39   ar
    34     2     1    1
    35     2     9    1
    36     1     8    1
    37     8    37    1
    38    42    39   ar
    39    42    43    1
    40    39    38    1
    41    19    18    1
    42     9    18   ar
    43     9    10   ar
    44    37    38    1
    45    18    16   ar
    46    11    10    1
    47    38    41    2
    48    10    12   ar
    49    16    17    1
    50    16    14   ar
    51    12    14   ar
    52    12    13    1
    53    14    15    1
