@<TRIPOS>MOLECULE
1-(2-hydroxy-5-nitrophenyl)ethanone
 20 20 0 0 0
SMALL
GASTEIGER

@<TRIPOS>ATOM
      1 O           2.6025    0.3262    0.7309 O.3     1  LIG1       -0.5061
      2 O           4.5116   -1.2287   -0.0129 O.2     1  LIG1       -0.2922
      3 O           6.0931    5.0799    2.7735 O.2     1  LIG1       -0.1261
      4 O           7.6582    3.7993    1.9939 O.2     1  LIG1       -0.1261
      5 N           6.4680    4.0512    2.2066 N.pl3   1  LIG1        0.0565
      6 C           3.5683    1.2019    1.0473 C.ar    1  LIG1        0.1274
      7 C           4.9485    0.9203    0.8458 C.ar    1  LIG1        0.0606
      8 C           5.8966    1.8885    1.2082 C.ar    1  LIG1       -0.0175
      9 C           5.4693    3.0838    1.7730 C.ar    1  LIG1        0.1271
     10 C           4.1097    3.3819    1.9530 C.ar    1  LIG1       -0.0280
     11 C           3.1656    2.4406    1.5802 C.ar    1  LIG1       -0.0173
     12 C           5.3635   -0.3629    0.2417 C.2     1  LIG1        0.1637
     13 C           6.8075   -0.6165   -0.0819 C.3     1  LIG1       -0.0013
     14 H           3.1062   -0.4656    0.3854 H       1  LIG1        0.2922
     15 H           6.9756    1.8034    1.0423 H       1  LIG1        0.0648
     16 H           3.8240    4.2996    2.4652 H       1  LIG1        0.0641
     17 H           2.1086    2.6296    1.7038 H       1  LIG1        0.0655
     18 H           6.9436   -1.5713   -0.5769 H       1  LIG1        0.0309
     19 H           7.3301   -0.6405    0.8641 H       1  LIG1        0.0309
     20 H           7.2646    0.1371   -0.7147 H       1  LIG1        0.0309
@<TRIPOS>BOND
     1    20    13    1
     2    18    13    1
     3    13    12    1
     4    13    19    1
     5     2    12    2
     6    12     7    1
     7    14     1    1
     8     1     6    1
     9     7     6   ar
    10     7     8   ar
    11    15     8    1
    12     6    11   ar
    13     8     9   ar
    14    11    17    1
    15    11    10   ar
    16     9    10   ar
    17     9     5    1
    18    10    16    1
    19     4     5    2
    20     5     3    2
