@<TRIPOS>MOLECULE
?
 44 48 0 0 0
SMALL
GASTEIGER

@<TRIPOS>ATOM
      1 N           3.8504    1.9609   20.6784 N.am    1  LIG1       -0.2526
      2 C           3.5896    3.2805   21.3178 C.3     1  LIG1        0.1124
      3 S           5.3132    3.9929   21.4439 S.3     1  LIG1       -0.1048
      4 C           2.8629    2.9491   22.6480 C.3     1  LIG1        0.0238
      5 C           3.2461    1.5007   22.8328 C.ar    1  LIG1       -0.0174
      6 C           3.1019    0.6743   23.9526 C.ar    1  LIG1       -0.0562
      7 H           2.7669    1.0202   24.7483 H       1  LIG1        0.0621
      8 C           3.4547   -0.6385   23.8714 C.ar    1  LIG1       -0.0614
      9 H           3.3666   -1.1830   24.6210 H       1  LIG1        0.0618
     10 C           3.9410   -1.1733   22.6966 C.ar    1  LIG1       -0.0600
     11 H           4.1720   -2.0733   22.6653 H       1  LIG1        0.0618
     12 C           4.0909   -0.3827   21.5537 C.ar    1  LIG1       -0.0399
     13 H           4.4113   -0.7344   20.7553 H       1  LIG1        0.0636
     14 C           3.7411    0.9417   21.6707 C.ar    1  LIG1        0.0415
     15 C           4.8748    2.0491   19.7672 C.2     1  LIG1        0.2489
     16 O           5.3972    1.1287   19.1728 O.2     1  LIG1       -0.2731
     17 C           5.2628    3.5285   19.6595 C.3     1  LIG1        0.2046
     18 C           4.0253    4.2920   19.1281 C.3     1  LIG1        0.1060
     19 H           3.7176    3.9286   18.2711 H       1  LIG1        0.0447
     20 C           4.3084    5.7762   19.0325 C.2     1  LIG1        0.3208
     21 O           5.1009    6.3662   18.3814 O.2     1  LIG1       -0.2499
     22 O           3.4581    6.4554   19.8755 O.3     1  LIG1       -0.3927
     23 C           2.6782    5.5902   20.6304 C.2     1  LIG1        0.3214
     24 O           1.9369    6.0087   21.4597 O.2     1  LIG1       -0.2499
     25 C           2.9518    4.1554   20.2167 C.3     1  LIG1        0.1039
     26 H           2.1426    3.7339   19.8592 H       1  LIG1        0.0453
     27 C           1.3223    3.0460   22.4796 C.3     1  LIG1       -0.0529
     28 H           1.0706    3.9645   22.3602 H       1  LIG1        0.0239
     29 H           0.8921    2.6943   23.2636 H       1  LIG1        0.0239
     30 H           1.0516    2.5384   21.7115 H       1  LIG1        0.0239
     31 C           3.3040    3.8705   23.8171 C.3     1  LIG1       -0.0529
     32 H           3.0214    4.7706   23.6383 H       1  LIG1        0.0239
     33 H           4.2596    3.8463   23.9002 H       1  LIG1        0.0239
     34 H           2.9039    3.5653   24.6330 H       1  LIG1        0.0239
     35 C           6.5782    3.7659   18.9429 C.2     1  LIG1        0.3333
     36 O           7.5822    4.0866   19.4988 O.2     1  LIG1       -0.2487
     37 O           6.4302    3.5624   17.6530 O.3     1  LIG1       -0.4636
     38 C           7.6527    3.7116   16.7936 C.3     1  LIG1        0.0897
     39 H           8.3391    4.1941   17.2789 H       1  LIG1        0.0694
     40 H           8.0018    2.8358   16.5653 H       1  LIG1        0.0694
     41 C           7.3464    4.3637   15.6956 C.3     1  LIG1       -0.0306
     42 H           8.1267    4.4460   15.1455 H       1  LIG1        0.0262
     43 H           7.0224    5.2385   15.9239 H       1  LIG1        0.0262
     44 H           6.6652    3.8850   15.2199 H       1  LIG1        0.0262
@<TRIPOS>BOND
     1    42    41    1
     2    44    41    1
     3    41    43    1
     4    41    38    1
     5    40    38    1
     6    38    39    1
     7    38    37    1
     8    37    35    1
     9    19    18    1
    10    21    20    2
    11    35    36    2
    12    35    17    1
    13    20    18    1
    14    20    22    1
    15    18    17    1
    16    18    25    1
    17    16    15    2
    18    17    15    1
    19    17     3    1
    20    15     1   am
    21    26    25    1
    22    22    23    1
    23    25    23    1
    24    25     2    1
    25    23    24    2
    26     1     2    1
    27     1    14    1
    28    13    12    1
    29     2     3    1
    30     2     4    1
    31    12    14   ar
    32    12    10   ar
    33    14     5   ar
    34    30    27    1
    35    28    27    1
    36    27     4    1
    37    27    29    1
    38     4     5    1
    39     4    31    1
    40    11    10    1
    41    10     8   ar
    42     5     6   ar
    43    32    31    1
    44    31    33    1
    45    31    34    1
    46     8     6   ar
    47     8     9    1
    48     6     7    1
