@<TRIPOS>MOLECULE
7151568.cif
 50 51 0 0 0
SMALL
GASTEIGER

@<TRIPOS>ATOM
      1 S           5.9350   10.5438    1.8010 S.O2    1  LIG1        0.0184
      2 N           3.8879   11.0497    0.1425 N.am    1  LIG1       -0.2567
      3 H           4.0535   11.7898   -0.2286 H       1  LIG1        0.1540
      4 O           6.4405   11.8788    1.6102 O.2     1  LIG1       -0.1675
      5 O           6.8583    9.4603    2.0208 O.2     1  LIG1       -0.1675
      6 O           6.2166   11.1162   -1.3778 O.3     1  LIG1       -0.3402
      7 O           5.0320   10.2258   -3.0698 O.3     1  LIG1       -0.3465
      8 O           2.2276    9.7741    1.0190 O.2     1  LIG1       -0.2264
      9 O           1.8373   11.8749    0.2149 O.3     1  LIG1       -0.4446
     10 C           4.7764   10.5846    3.1172 C.ar    1  LIG1        0.0903
     11 C           4.1127   11.7667    3.4239 C.ar    1  LIG1       -0.0368
     12 H           4.2807   12.5358    2.9299 H       1  LIG1        0.0636
     13 C           3.1975   11.7989    4.4696 C.ar    1  LIG1       -0.0600
     14 H           2.7531   12.5903    4.6753 H       1  LIG1        0.0618
     15 C           2.9462   10.6488    5.2088 C.ar    1  LIG1       -0.0616
     16 H           2.3336   10.6699    5.9082 H       1  LIG1        0.0618
     17 C           3.6099    9.4666    4.9021 C.ar    1  LIG1       -0.0600
     18 H           3.4417    8.6971    5.3974 H       1  LIG1        0.0618
     19 C           4.5250    9.4346    3.8563 C.ar    1  LIG1       -0.0368
     20 H           4.9692    8.6437    3.6519 H       1  LIG1        0.0636
     21 C           4.9093   10.0790    0.3572 C.3     1  LIG1        0.1776
     22 H           4.4700    9.2281    0.5662 H       1  LIG1        0.0775
     23 C           5.7859    9.8556   -0.8765 C.3     1  LIG1        0.1239
     24 H           6.5585    9.2961   -0.6493 H       1  LIG1        0.0656
     25 C           4.9934    9.2310   -2.0523 C.3     1  LIG1        0.0806
     26 H           5.4126    8.4099   -2.3550 H       1  LIG1        0.0588
     27 H           4.0794    9.0389   -1.7905 H       1  LIG1        0.0588
     28 C           6.1758   11.0318   -2.8111 C.3     1  LIG1        0.1651
     29 C           5.9557   12.3983   -3.3769 C.3     1  LIG1       -0.0108
     30 H           5.1495   12.7707   -3.0095 H       1  LIG1        0.0281
     31 H           5.8750   12.3398   -4.3324 H       1  LIG1        0.0281
     32 H           6.6990   12.9622   -3.1515 H       1  LIG1        0.0281
     33 C           7.4370   10.3570   -3.3359 C.3     1  LIG1       -0.0108
     34 H           8.1966   10.9148   -3.1550 H       1  LIG1        0.0281
     35 H           7.3576   10.2234   -4.2840 H       1  LIG1        0.0281
     36 H           7.5509    9.5098   -2.9004 H       1  LIG1        0.0281
     37 C           2.5921   10.8104    0.5098 C.2     1  LIG1        0.4023
     38 C           0.3801   11.8592    0.4985 C.3     1  LIG1        0.1068
     39 C           0.1397   11.7382    1.9880 C.3     1  LIG1       -0.0253
     40 H           0.6048   12.4422    2.4450 H       1  LIG1        0.0268
     41 H           0.4623   10.8881    2.2961 H       1  LIG1        0.0268
     42 H          -0.8011   11.8065    2.1662 H       1  LIG1        0.0268
     43 C          -0.0623   13.2179   -0.0106 C.3     1  LIG1       -0.0253
     44 H          -0.1176   13.1982   -0.9680 H       1  LIG1        0.0268
     45 H           0.5739   13.8840    0.2597 H       1  LIG1        0.0268
     46 H          -0.9237   13.4320    0.3550 H       1  LIG1        0.0268
     47 C          -0.2805   10.7396   -0.2857 C.3     1  LIG1       -0.0253
     48 H          -1.2326   10.7845   -0.1680 H       1  LIG1        0.0268
     49 H           0.0418    9.8928    0.0329 H       1  LIG1        0.0268
     50 H          -0.0688   10.8335   -1.2173 H       1  LIG1        0.0268
@<TRIPOS>BOND
     1    31    29    1
     2    35    33    1
     3    29    32    1
     4    29    30    1
     5    29    28    1
     6    33    34    1
     7    33    36    1
     8    33    28    1
     9     7    28    1
    10     7    25    1
    11    28     6    1
    12    26    25    1
    13    25    27    1
    14    25    23    1
    15     6    23    1
    16    50    47    1
    17    44    43    1
    18    23    24    1
    19    23    21    1
    20    47    48    1
    21    47    49    1
    22    47    38    1
    23     3     2    1
    24    43    45    1
    25    43    46    1
    26    43    38    1
    27     2    21    1
    28     2    37   am
    29     9    38    1
    30     9    37    1
    31    21    22    1
    32    21     1    1
    33    38    39    1
    34    37     8    2
    35     4     1    2
    36     1     5    2
    37     1    10    1
    38    39    42    1
    39    39    41    1
    40    39    40    1
    41    12    11    1
    42    10    11   ar
    43    10    19   ar
    44    11    13   ar
    45    20    19    1
    46    19    17   ar
    47    13    14    1
    48    13    15   ar
    49    17    15   ar
    50    17    18    1
    51    15    16    1
