@<TRIPOS>MOLECULE
?
 158 160 0 0 0
SMALL
GASTEIGER

@<TRIPOS>ATOM
      1 C          13.9279   10.7584   17.4051 C.3     1  LIG1        0.0000
      2 H          14.7618   10.8327   17.9538 H       1  LIG1        0.0000
      3 C          10.0207    3.0265   20.1194 C.3     2  LIG2        0.0000
      4 H           9.2310    3.1900   19.5259 H       2  LIG2        0.0000
      5 C           9.4795    6.2449   21.6518 C.3     2  LIG2        0.0000
      6 C          14.6268   13.9359   15.8359 C.3     1  LIG1        0.0000
      7 C          10.7423    5.8785   22.4807 C.3     2  LIG2        0.0000
      8 C          13.3520   13.6279   15.0124 C.3     1  LIG1        0.0000
      9 C          14.2941   14.5384   17.1957 C.3     1  LIG1        0.0000
     10 H          13.9814   15.4601   17.0763 H       1  LIG1        0.0000
     11 H          15.0958   14.5346   17.7597 H       1  LIG1        0.0000
     12 H          13.5899   14.0071   17.6258 H       1  LIG1        0.0000
     13 C           9.8296    6.8191   20.2870 C.3     2  LIG2        0.0000
     14 H          10.2144    7.7129   20.3980 H       2  LIG2        0.0000
     15 H           9.0185    6.8779   19.7391 H       2  LIG2        0.0000
     16 H          10.4804    6.2349   19.8430 H       2  LIG2        0.0000
     17 C          15.6557   14.8073   15.1289 C.3     1  LIG1        0.0000
     18 H          15.2575   15.6770   14.9192 H       1  LIG1        0.0000
     19 H          15.9404   14.3692   14.2986 H       1  LIG1        0.0000
     20 H          16.4308   14.9357   15.7147 H       1  LIG1        0.0000
     21 C           8.4933    7.1651   22.3651 C.3     2  LIG2        0.0000
     22 H           8.9249    8.0250   22.5524 H       2  LIG2        0.0000
     23 H           8.2114    6.7531   23.2085 H       2  LIG2        0.0000
     24 H           7.7103    7.3102   21.7950 H       2  LIG2        0.0000
     25 C          11.8901    6.8754   22.3921 C.3     2  LIG2        0.0000
     26 H          11.6095    7.7316   22.7793 H       2  LIG2        0.0000
     27 H          12.1373    7.0059   21.4533 H       2  LIG2        0.0000
     28 H          12.6612    6.5299   22.8886 H       2  LIG2        0.0000
     29 C          12.2643   14.6813   15.1116 C.3     1  LIG1        0.0000
     30 H          12.6024   15.5334   14.7633 H       1  LIG1        0.0000
     31 H          12.0037   14.7937   16.0483 H       1  LIG1        0.0000
     32 H          11.4866   14.3988   14.5856 H       1  LIG1        0.0000
     33 C          13.6460   13.3017   13.5571 C.3     1  LIG1        0.0000
     34 H          13.9106   14.1195   13.0874 H       1  LIG1        0.0000
     35 H          12.8429   12.9287   13.1366 H       1  LIG1        0.0000
     36 H          14.3729   12.6477   13.5084 H       1  LIG1        0.0000
     37 C          10.4363    5.5810   23.9453 C.3     2  LIG2        0.0000
     38 H          10.2278    6.4175   24.4114 H       2  LIG2        0.0000
     39 H          11.2167    5.1612   24.3622 H       2  LIG2        0.0000
     40 H           9.6679    4.9754   24.0013 H       2  LIG2        0.0000
     41 C           9.6973    1.6805   21.9487 C.3     2  LIG2        0.0000
     42 C          14.0883    9.3834   15.5745 C.3     1  LIG1        0.0000
     43 C          14.2700    8.2304   13.4475 C.3     1  LIG1        0.0000
     44 H          14.5199    9.1581   13.1667 H       1  LIG1        0.0000
     45 C           9.6692   -0.7766   21.9238 C.3     2  LIG2        0.0000
     46 H           9.5664   -1.4686   22.6398 H       2  LIG2        0.0000
     47 C          12.9725    7.8721   12.7454 C.3     1  LIG1        0.0000
     48 H          13.0981    7.9329   11.7751 H       1  LIG1        0.0000
     49 H          12.2683    8.4948   13.0218 H       1  LIG1        0.0000
     50 H          12.7133    6.9575   12.9835 H       1  LIG1        0.0000
     51 C           8.5013   -0.9879   20.9576 C.3     2  LIG2        0.0000
     52 H           8.5201   -1.9072   20.6195 H       2  LIG2        0.0000
     53 H           8.5802   -0.3621   20.2066 H       2  LIG2        0.0000
     54 H           7.6555   -0.8303   21.4287 H       2  LIG2        0.0000
     55 C          15.4125    7.3102   13.0623 C.3     1  LIG1        0.0000
     56 H          15.5756    7.3773   12.0977 H       1  LIG1        0.0000
     57 H          15.1787    6.3863   13.2897 H       1  LIG1        0.0000
     58 H          16.2223    7.5709   13.5495 H       1  LIG1        0.0000
     59 C          11.0055   -1.0301   21.2876 C.3     2  LIG2        0.0000
     60 H          11.0563   -1.9649   20.9940 H       2  LIG2        0.0000
     61 H          11.7164   -0.8537   21.9399 H       2  LIG2        0.0000
     62 H          11.1178   -0.4401   20.5128 H       2  LIG2        0.0000
     63 C           9.3993    0.5837   24.0888 C.3     2  LIG2        0.0000
     64 H           9.3860    1.5451   24.3677 H       2  LIG2        0.0000
     65 C          13.7783    6.9492   15.6133 C.3     1  LIG1        0.0000
     66 H          13.7943    6.2427   14.9055 H       1  LIG1        0.0000
     67 C          12.3805    6.9263   16.2101 C.3     1  LIG1        0.0000
     68 H          12.1480    6.0071   16.4638 H       1  LIG1        0.0000
     69 H          11.7365    7.2556   15.5480 H       1  LIG1        0.0000
     70 H          12.3552    7.4991   17.0052 H       1  LIG1        0.0000
     71 C          10.5926   -0.0718   24.7679 C.3     2  LIG2        0.0000
     72 H          10.4897   -0.0109   25.7401 H       2  LIG2        0.0000
     73 H          11.4158    0.3870   24.4989 H       2  LIG2        0.0000
     74 H          10.6421   -1.0144   24.5017 H       2  LIG2        0.0000
     75 C           8.0711   -0.0156   24.4740 C.3     2  LIG2        0.0000
     76 H           7.9615    0.0297   25.4476 H       2  LIG2        0.0000
     77 H           8.0403   -0.9520   24.1845 H       2  LIG2        0.0000
     78 H           7.3481    0.4838   24.0396 H       2  LIG2        0.0000
     79 C          14.8727    6.5923   16.6025 C.3     1  LIG1        0.0000
     80 H          14.7003    5.7012   16.9724 H       1  LIG1        0.0000
     81 H          14.8847    7.2509   17.3278 H       1  LIG1        0.0000
     82 H          15.7386    6.5939   16.1440 H       1  LIG1        0.0000
     83 C          12.7360   10.9811   18.3041 C.3     1  LIG1        0.0000
     84 H          11.9128   10.9419   17.7543 H       1  LIG1        0.0000
     85 H          12.7948   11.8908   18.6893 H       1  LIG1        0.0000
     86 C          11.2768    3.1267   19.3022 C.3     2  LIG2        0.0000
     87 H          12.0518    3.0121   19.9059 H       2  LIG2        0.0000
     88 H          11.3302    4.0390   18.9217 H       2  LIG2        0.0000
     89 C          12.6104    9.9662   19.4526 C.3     1  LIG1        0.0000
     90 H          12.2776    9.1066   19.0884 H       1  LIG1        0.0000
     91 H          13.5070    9.8042   19.8403 H       1  LIG1        0.0000
     92 C          11.3997    2.1183   18.1603 C.3     2  LIG2        0.0000
     93 H          11.6950    1.2485   18.5280 H       2  LIG2        0.0000
     94 H          10.5098    1.9867   17.7488 H       2  LIG2        0.0000
     95 C          11.6777   10.4330   20.5475 C.ar    1  LIG1        0.0000
     96 C          12.3805    2.5606   17.0913 C.ar    2  LIG2        0.0000
     97 C          12.2055   10.8667   21.7513 C.ar    1  LIG1        0.0000
     98 H          13.1462   10.8655   21.8825 H       1  LIG1        0.0000
     99 C          13.7516    2.4865   17.2999 C.ar    2  LIG2        0.0000
    100 H          14.0910    2.1413   18.1179 H       2  LIG2        0.0000
    101 C          14.6268    2.9194   16.3091 C.ar    2  LIG2        0.0000
    102 C          11.3650   11.3029   22.7689 C.ar    1  LIG1        0.0000
    103 C           9.9806   11.3065   22.5904 C.ar    1  LIG1        0.0000
    104 C          14.1270    3.4279   15.1207 C.ar    2  LIG2        0.0000
    105 C           9.4568   10.8679   21.3828 C.ar    1  LIG1        0.0000
    106 C          12.7494    3.5317   14.9208 C.ar    2  LIG2        0.0000
    107 C          11.8861    3.0908   15.9138 C.ar    2  LIG2        0.0000
    108 H          10.9467    3.1541   15.7831 H       2  LIG2        0.0000
    109 C          10.2853   10.4470   20.3564 C.ar    1  LIG1        0.0000
    110 H           9.9138   10.1694   19.5259 H       1  LIG1        0.0000
    111 C          16.5577    2.3471   17.5995 C.3     2  LIG2        0.0000
    112 H          17.5359    2.3956   17.5520 H       2  LIG2        0.0000
    113 H          16.2811    1.4124   17.7023 H       2  LIG2        0.0000
    114 H          16.2424    2.8670   18.3694 H       2  LIG2        0.0000
    115 C          13.1970   11.6349   24.2438 C.3     1  LIG1        0.0000
    116 H          13.3841   11.9236   25.1605 H       1  LIG1        0.0000
    117 H          13.6954   12.1983   23.6159 H       1  LIG1        0.0000
    118 H          13.4723   10.7000   24.1326 H       1  LIG1        0.0000
    119 C          15.5355    2.8482   13.3253 C.3     2  LIG2        0.0000
    120 H          16.0352    3.2368   12.5789 H       2  LIG2        0.0000
    121 H          14.8019    2.2973   12.9753 H       2  LIG2        0.0000
    122 H          16.1341    2.2895   13.8639 H       2  LIG2        0.0000
    123 C           8.7285   10.7827   24.5148 C.3     1  LIG1        0.0000
    124 H           8.2247   11.2010   25.2426 H       1  LIG1        0.0000
    125 H           9.5169   10.3286   24.8789 H       1  LIG1        0.0000
    126 H           8.1593   10.1304   24.0560 H       1  LIG1        0.0000
    127 C           7.4818   10.3863   20.1156 C.3     1  LIG1        0.0000
    128 H           6.5063   10.4269   20.2012 H       1  LIG1        0.0000
    129 H           7.7597    9.4562   19.9770 H       1  LIG1        0.0000
    130 H           7.7664   10.9294   19.3509 H       1  LIG1        0.0000
    131 C          10.9547    4.2185   13.5273 C.3     2  LIG2        0.0000
    132 H          10.7917    4.7351   12.7101 H       2  LIG2        0.0000
    133 H          10.5472    4.6789   14.2904 H       2  LIG2        0.0000
    134 H          10.5579    3.3274   13.4346 H       2  LIG2        0.0000
    135 N           9.5891    0.5478   22.6136 N.3     2  LIG2        0.0000
    136 N          14.0749    8.2410   14.9246 N.3     1  LIG1        0.0000
    137 O          11.1031   10.4853   14.5903 O.3     3  HOH3        0.0000
    138 H          11.6523   11.2213   14.9164 H       0  HOH0        0.0000
    139 H          10.1557   10.8155   14.7360 H       0  HOH0        0.0000
    140 O          15.1819   12.6161   16.0548 O.3     1  LIG1        0.0000
    141 O           8.8653    4.9591   21.4607 O.3     2  LIG2        0.0000
    142 O          12.9097    2.7688   23.1000 O.3     4  HOH4        0.0000
    143 H          13.8705    3.0433   22.9652 H       0  HOH0        0.0000
    144 H          12.0932    3.2930   22.8011 H       0  HOH0        0.0000
    145 O          12.8990   12.4072   15.6702 O.3     1  LIG1        0.0000
    146 O          11.1345    4.6387   21.8303 O.3     2  LIG2        0.0000
    147 O          13.8291    9.3703   16.8671 O.3     1  LIG1        0.0000
    148 O           9.9460    1.6303   20.6596 O.3     2  LIG2        0.0000
    149 O          14.3646   10.5048   15.0324 O.3     1  LIG1        0.0000
    150 O          15.9978    2.8812   16.4037 O.3     2  LIG2        0.0000
    151 O          11.8006   11.7535   23.9828 O.3     1  LIG1        0.0000
    152 O           9.1462   11.7905   23.5820 O.3     1  LIG1        0.0000
    153 O          14.9976    3.8983   14.1408 O.3     2  LIG2        0.0000
    154 O           8.0854   10.8879   21.3090 O.3     1  LIG1        0.0000
    155 O          12.3578    4.0951   13.7395 O.3     2  LIG2        0.0000
    156 O           9.5661    2.8250   22.4988 O.3     2  LIG2        0.0000
    157 B          14.0816   11.7012   16.0909 B       1  LIG1        0.0000
    158 B           9.9084    3.9829   21.4246 B       2  LIG2        0.0000
@<TRIPOS>BOND
     1    48    47    1
     2    56    55    1
     3   120   119    1
     4   132   131    1
     5    47    50    1
     6    47    49    1
     7    47    43    1
     8   121   119    1
     9    55    57    1
    10    55    43    1
    11    55    58    1
    12    34    33    1
    13    35    33    1
    14    44    43    1
    15   119   122    1
    16   119   153    1
    17   134   131    1
    18    43   136    1
    19    36    33    1
    20   131   155    1
    21   131   133    1
    22    33     8    1
    23   155   106    1
    24   153   104    1
    25    19    17    1
    26    32    29    1
    27   137   139    1
    28   137   138    1
    29    30    29    1
    30    66    65    1
    31    18    17    1
    32   106   104   ar
    33   106   107   ar
    34   136    42    1
    35   136    65    1
    36     8    29    1
    37     8   145    1
    38     8     6    1
    39   149    42    1
    40   149   157    1
    41    29    31    1
    42   104   101   ar
    43    17    20    1
    44    17     6    1
    45    69    67    1
    46    42   147    1
    47    65    67    1
    48    65    79    1
    49   145   157    1
    50   108   107    1
    51     6   140    1
    52     6     9    1
    53   107    96   ar
    54   140   157    1
    55   157     1    1
    56    82    79    1
    57    67    68    1
    58    67    70    1
    59   101   150    1
    60   101    99   ar
    61   150   111    1
    62    79    80    1
    63    79    81    1
    64   147     1    1
    65    10     9    1
    66    96    99   ar
    67    96    92    1
    68     9    12    1
    69     9    11    1
    70    99   100    1
    71     1     2    1
    72     1    83    1
    73   112   111    1
    74   111   113    1
    75   111   114    1
    76    94    92    1
    77    84    83    1
    78    92    93    1
    79    92    86    1
    80    83    85    1
    81    83    89    1
    82    88    86    1
    83    90    89    1
    84    86    87    1
    85    86     3    1
    86   130   127    1
    87    89    91    1
    88    89    95    1
    89     4     3    1
    90   110   109    1
    91    15    13    1
    92    16    13    1
    93   129   127    1
    94   127   128    1
    95   127   154    1
    96     3   148    1
    97     3   158    1
    98    53    51    1
    99    13    14    1
   100    13     5    1
   101   109    95   ar
   102   109   105   ar
   103    62    59    1
   104    95    97   ar
   105    52    51    1
   106   148    41    1
   107    51    54    1
   108    51    45    1
   109    60    59    1
   110    59    45    1
   111    59    61    1
   112   154   105    1
   113   105   103   ar
   114   158   141    1
   115   158   146    1
   116   158   156    1
   117    27    25    1
   118   141     5    1
   119     5    21    1
   120     5     7    1
   121    97    98    1
   122    97   102   ar
   123    24    21    1
   124   146     7    1
   125    45   135    1
   126    45    46    1
   127    41   156    1
   128    41   135    1
   129    21    22    1
   130    21    23    1
   131    25     7    1
   132    25    26    1
   133    25    28    1
   134     7    37    1
   135   103   102   ar
   136   103   152    1
   137   135    63    1
   138   102   151    1
   139   144   142    1
   140   143   142    1
   141   152   123    1
   142   117   115    1
   143    37    40    1
   144    37    39    1
   145    37    38    1
   146   151   115    1
   147    78    75    1
   148   126   123    1
   149    63    64    1
   150    63    75    1
   151    63    71    1
   152   118   115    1
   153    77    75    1
   154   115   116    1
   155    75    76    1
   156    73    71    1
   157    74    71    1
   158   123   125    1
   159   123   124    1
   160    71    72    1
