@<TRIPOS>MOLECULE
?
 35 36 0 0 0
SMALL
GASTEIGER

@<TRIPOS>ATOM
      1 C           2.5322    4.0903   18.4957 C.3     1  LIG1        0.0856
      2 H           2.6740    4.4920   19.3884 H       1  LIG1        0.0515
      3 H           2.1237    4.7705   17.9030 H       1  LIG1        0.0515
      4 C           1.6386    2.8636   18.5968 C.3     1  LIG1        0.0916
      5 H           0.6771    3.1368   18.5734 H       1  LIG1        0.0519
      6 C           1.9620    1.9722   17.3900 C.3     1  LIG1        0.1399
      7 H           1.6029    1.0485   17.5242 H       1  LIG1        0.0766
      8 C           3.4635    1.9414   17.1997 C.3     1  LIG1        0.1042
      9 H           3.6883    1.8291   16.2432 H       1  LIG1        0.0537
     10 H           3.8610    1.1907   17.7073 H       1  LIG1        0.0537
     11 C           0.1658    2.0915   15.8608 C.2     1  LIG1        0.3412
     12 C          -0.4016    2.8547   14.6742 C.3     1  LIG1        0.1795
     13 H          -0.5510    3.8071   14.9408 H       1  LIG1        0.0764
     14 C           0.4907    2.8184   13.4506 C.ar    1  LIG1       -0.0082
     15 C           0.8751    3.9909   12.8158 C.ar    1  LIG1       -0.0556
     16 H           0.6428    4.8344   13.1873 H       1  LIG1        0.0621
     17 C           1.6036    3.9232   11.6322 C.ar    1  LIG1       -0.0614
     18 H           1.8674    4.7241   11.1955 H       1  LIG1        0.0618
     19 C           1.9483    2.6958   11.0870 C.ar    1  LIG1       -0.0617
     20 H           2.4376    2.6571   10.2741 H       1  LIG1        0.0618
     21 C           1.5782    1.5273   11.7282 C.ar    1  LIG1       -0.0614
     22 H           1.8229    0.6858   11.3615 H       1  LIG1        0.0618
     23 C           0.8498    1.5852   12.9047 C.ar    1  LIG1       -0.0556
     24 H           0.5935    0.7815   13.3427 H       1  LIG1        0.0621
     25 C          -2.5445    3.0914   13.6847 C.3     1  LIG1        0.0380
     26 H          -2.7974    3.8545   14.2450 H       1  LIG1        0.0524
     27 H          -3.3484    2.5874   13.4384 H       1  LIG1        0.0524
     28 H          -2.1004    3.4164   12.8724 H       1  LIG1        0.0524
     29 O          -0.3889    1.1937   16.4253 O.2     1  LIG1       -0.2475
     30 O           4.4784    4.3757   16.7275 O.2     1  LIG1       -0.1742
     31 O           5.0513    3.2741   18.8509 O.2     1  LIG1       -0.1742
     32 O           1.3700    2.5873   16.2200 O.3     1  LIG1       -0.4561
     33 O          -1.6574    2.2464   14.4054 O.3     1  LIG1       -0.3639
     34 S           4.0872    3.5114   17.8108 S.O2    1  LIG1       -0.0260
     35 CL          1.9797    1.9404   20.0953 Cl      1  LIG1       -0.1162
@<TRIPOS>BOND
     1    20    19    1
     2    19    17   ar
     3    19    21   ar
     4    18    17    1
     5    22    21    1
     6    17    15   ar
     7    21    23   ar
     8    15    16    1
     9    15    14   ar
    10    28    25    1
    11    23    24    1
    12    23    14   ar
    13    27    25    1
    14    14    12    1
    15    25    26    1
    16    25    33    1
    17    33    12    1
    18    12    13    1
    19    12    11    1
    20    11    32    1
    21    11    29    2
    22    32     6    1
    23     9     8    1
    24    30    34    2
    25     8     6    1
    26     8    10    1
    27     8    34    1
    28     6     7    1
    29     6     4    1
    30    34     1    1
    31    34    31    2
    32     3     1    1
    33     1     4    1
    34     1     2    1
    35     5     4    1
    36     4    35    1
