@<TRIPOS>MOLECULE
?
 17 15 0 0 0
SMALL
GASTEIGER

@<TRIPOS>ATOM
      1 CL         -0.0815    6.2752    5.6703 Cl      1  LIG1        0.0000
      2 S           0.5931    1.0565    9.3282 S.3     2  LIG2       -0.2040
      3 O           0.6009    3.4878    6.2816 O.3     2  LIG2       -0.4801
      4 O          -0.0173    3.7313    8.4275 O.2     2  LIG2       -0.2501
      5 C           0.9130    1.6522    7.6664 C.3     2  LIG2        0.0821
      6 H           1.8840    1.6066    7.4790 H       2  LIG2        0.0482
      7 H           0.4447    1.0763    7.0110 H       2  LIG2        0.0482
      8 C           1.3032   -0.5796    9.1805 C.3     2  LIG2       -0.0265
      9 H           2.2076   -0.5112    8.8094 H       2  LIG2        0.0333
     10 H           0.7464   -1.1250    8.5863 H       2  LIG2        0.0333
     11 H           1.3447   -0.9987   10.0649 H       2  LIG2        0.0333
     12 C           1.8383    1.8903   10.3057 C.3     2  LIG2       -0.0265
     13 H           1.8500    1.5136   11.2103 H       2  LIG2        0.0333
     14 H           1.6297    2.8469   10.3533 H       2  LIG2        0.0333
     15 H           2.7171    1.7677    9.8895 H       2  LIG2        0.0333
     16 C           0.4360    3.0745    7.5209 C.2     2  LIG2        0.3139
     17 H           0.3795    4.2770    6.1908 H       2  LIG2        0.2951
@<TRIPOS>BOND
     1    17     3    1
     2     3    16    1
     3     7     5    1
     4     6     5    1
     5    16     5    1
     6    16     4    2
     7     5     2    1
     8    10     8    1
     9     9     8    1
    10     8     2    1
    11     8    11    1
    12     2    12    1
    13    15    12    1
    14    12    14    1
    15    12    13    1
