@<TRIPOS>MOLECULE
?
 36 36 0 0 0
SMALL
GASTEIGER

@<TRIPOS>ATOM
      1 S          14.4977    0.6645    1.9859 S.3     1  LIG1       -0.0743
      2 S          10.6239    4.6596    1.9797 S.3     1  LIG1       -0.0743
      3 C          13.3630   -0.3359    2.7474 C.1     1  LIG1       -0.0336
      4 C          12.5901   -1.0514    3.3102 C.1     1  LIG1       -0.0905
      5 C          11.5992   -1.9261    3.9445 C.3     1  LIG1        0.0100
      6 H          11.0326   -1.3862    4.5501 H       1  LIG1        0.0398
      7 H          12.0702   -2.6019    4.4935 H       1  LIG1        0.0398
      8 C          10.7050   -2.6420    2.9302 C.3     1  LIG1       -0.0421
      9 H          11.2663   -3.2431    2.3797 H       1  LIG1        0.0274
     10 H          10.0548   -3.2049    3.4209 H       1  LIG1        0.0274
     11 C           9.9399   -1.7045    2.0045 C.3     1  LIG1       -0.0522
     12 H          10.5907   -1.1349    1.5218 H       1  LIG1        0.0266
     13 H           9.4603   -2.2480    1.3305 H       1  LIG1        0.0266
     14 C           8.9347   -0.8045    2.7075 C.3     1  LIG1       -0.0530
     15 H           9.4136   -0.2414    3.3661 H       1  LIG1        0.0265
     16 H           8.2908   -1.3687    3.2044 H       1  LIG1        0.0265
     17 C           8.1648    0.0983    1.7538 C.3     1  LIG1       -0.0522
     18 H           8.8054    0.7013    1.3008 H       1  LIG1        0.0266
     19 H           7.7403   -0.4642    1.0583 H       1  LIG1        0.0266
     20 C           7.0891    0.9429    2.4220 C.3     1  LIG1       -0.0421
     21 H           6.4252    0.3386    2.8397 H       1  LIG1        0.0274
     22 H           6.6206    1.4681    1.7257 H       1  LIG1        0.0274
     23 C           7.6164    1.9032    3.4891 C.3     1  LIG1        0.0100
     24 H           6.8585    2.4261    3.8530 H       1  LIG1        0.0398
     25 H           8.0044    1.3763    4.2321 H       1  LIG1        0.0398
     26 C           8.6330    2.8287    2.9796 C.1     1  LIG1       -0.0905
     27 C           9.4717    3.5577    2.5398 C.1     1  LIG1       -0.0336
     28 C          11.7084    3.5795    0.9975 C.3     1  LIG1        0.0066
     29 H          11.1579    3.0771    0.3468 H       1  LIG1        0.0386
     30 H          12.3435    4.1410    0.4860 H       1  LIG1        0.0386
     31 C          12.4936    2.5926    1.8472 C.3     1  LIG1       -0.0332
     32 H          13.0318    3.0891    2.5127 H       1  LIG1        0.0282
     33 H          11.8622    2.0088    2.3393 H       1  LIG1        0.0282
     34 C          13.4108    1.7363    0.9978 C.3     1  LIG1        0.0066
     35 H          13.9689    2.3256    0.4312 H       1  LIG1        0.0386
     36 H          12.8610    1.1721    0.3980 H       1  LIG1        0.0386
@<TRIPOS>BOND
     1    29    28    1
     2    36    34    1
     3    35    34    1
     4    30    28    1
     5    28    31    1
     6    28     2    1
     7    34    31    1
     8    34     1    1
     9    19    17    1
    10    18    17    1
    11    13    11    1
    12    12    11    1
    13    22    20    1
    14    17    20    1
    15    17    14    1
    16    31    33    1
    17    31    32    1
    18     2    27    1
    19     1     3    1
    20    11    14    1
    21    11     8    1
    22     9     8    1
    23    20    21    1
    24    20    23    1
    25    27    26    3
    26    14    16    1
    27    14    15    1
    28     3     4    3
    29     8    10    1
    30     8     5    1
    31    26    23    1
    32     4     5    1
    33    23    24    1
    34    23    25    1
    35     5     7    1
    36     5     6    1
