@<TRIPOS>MOLECULE
?
 45 46 0 0 0
SMALL
GASTEIGER

@<TRIPOS>ATOM
      1 C           1.0595    6.3010    2.6460 C.3     1  LIG1        0.1034
      2 H           1.3922    6.0351    3.5505 H       1  LIG1        0.0734
      3 C           2.1894    6.2685    1.6543 C.3     1  LIG1       -0.0154
      4 H           2.9270    6.8488    1.9687 H       1  LIG1        0.0301
      5 H           1.8764    6.6125    0.7798 H       1  LIG1        0.0301
      6 C           2.6925    4.8330    1.4949 C.3     1  LIG1       -0.0464
      7 H           3.0341    4.5075    2.3656 H       1  LIG1        0.0269
      8 H           3.4419    4.8192    0.8486 H       1  LIG1        0.0269
      9 C           1.5798    3.8937    1.0030 C.3     1  LIG1       -0.0359
     10 H           1.2274    4.2802    0.1519 H       1  LIG1        0.0306
     11 C           0.4456    3.9456    2.0171 C.3     1  LIG1       -0.0464
     12 H           0.7634    3.5879    2.8841 H       1  LIG1        0.0269
     13 H          -0.2992    3.3733    1.7054 H       1  LIG1        0.0269
     14 C          -0.0648    5.3782    2.2164 C.3     1  LIG1       -0.0154
     15 H          -0.4570    5.7094    1.3692 H       1  LIG1        0.0301
     16 H          -0.7752    5.3825    2.9064 H       1  LIG1        0.0301
     17 C           2.0872    2.4612    0.6742 C.3     1  LIG1       -0.0349
     18 C           3.0131    2.5252   -0.5383 C.3     1  LIG1       -0.0598
     19 H           3.7807    3.1000   -0.3342 H       1  LIG1        0.0235
     20 H           2.5245    2.8930   -1.3043 H       1  LIG1        0.0235
     21 H           3.3295    1.6234   -0.7555 H       1  LIG1        0.0235
     22 C           2.8535    1.8279    1.8575 C.3     1  LIG1       -0.0598
     23 H           3.6050    2.4051    2.1064 H       1  LIG1        0.0235
     24 H           3.1918    0.9465    1.5940 H       1  LIG1        0.0235
     25 H           2.2495    1.7307    2.6229 H       1  LIG1        0.0235
     26 C           0.9004    1.5548    0.2912 C.3     1  LIG1       -0.0598
     27 H           0.2803    1.4919    1.0471 H       1  LIG1        0.0235
     28 H           1.2318    0.6604    0.0648 H       1  LIG1        0.0235
     29 H           0.4346    1.9364   -0.4820 H       1  LIG1        0.0235
     30 C          -0.0237    8.0964    3.7905 C.2     1  LIG1        0.3417
     31 C          -0.3049    9.5675    3.7295 C.ar    1  LIG1        0.0891
     32 C          -1.4565   10.1311    4.2557 C.ar    1  LIG1        0.1401
     33 C          -1.6629   11.4971    4.3244 C.ar    1  LIG1       -0.0307
     34 H          -2.4631   11.8493    4.6968 H       1  LIG1        0.0640
     35 C          -0.6758   12.3411    3.8387 C.ar    1  LIG1       -0.0596
     36 H          -0.7955   13.2824    3.8705 H       1  LIG1        0.0618
     37 C           0.4735   11.8116    3.3109 C.ar    1  LIG1       -0.0609
     38 H           1.1497   12.3922    2.9834 H       1  LIG1        0.0618
     39 C           0.6600   10.4375    3.2507 C.ar    1  LIG1       -0.0455
     40 H           1.4605   10.0892    2.8760 H       1  LIG1        0.0626
     41 N          -2.5520    9.2619    4.6859 N.pl3   1  LIG1        0.0572
     42 O           0.5753    7.6891    2.6763 O.3     1  LIG1       -0.4578
     43 O          -0.2653    7.4029    4.7436 O.2     1  LIG1       -0.2449
     44 O          -2.8548    8.3122    3.9726 O.2     1  LIG1       -0.1261
     45 O          -3.1346    9.5608    5.7120 O.2     1  LIG1       -0.1261
@<TRIPOS>BOND
     1    20    18    1
     2    21    18    1
     3    18    19    1
     4    18    17    1
     5    29    26    1
     6    28    26    1
     7    10     9    1
     8    26    17    1
     9    26    27    1
    10    17     9    1
    11    17    22    1
    12     5     3    1
    13     8     6    1
    14     9     6    1
    15     9    11    1
    16    15    14    1
    17     6     3    1
    18     6     7    1
    19    24    22    1
    20     3     4    1
    21     3     1    1
    22    13    11    1
    23    22    23    1
    24    22    25    1
    25    11    14    1
    26    11    12    1
    27    14     1    1
    28    14    16    1
    29     1    42    1
    30     1     2    1
    31    42    30    1
    32    40    39    1
    33    38    37    1
    34    39    37   ar
    35    39    31   ar
    36    37    35   ar
    37    31    30    1
    38    31    32   ar
    39    30    43    2
    40    35    36    1
    41    35    33   ar
    42    44    41    2
    43    32    33   ar
    44    32    41    1
    45    33    34    1
    46    41    45    2
