@<TRIPOS>MOLECULE
?
 46 48 0 0 0
SMALL
GASTEIGER

@<TRIPOS>ATOM
      1 CL          1.9190    7.9875    6.0615 Cl      1  LIG1       -0.0618
      2 CL          6.3126    9.3706    3.6804 Cl      1  LIG1       -0.0410
      3 O           0.4116    0.9317    1.6121 O.3     1  LIG1       -0.4951
      4 O          10.8675    2.2705    5.8184 O.3     1  LIG1       -0.4951
      5 N           4.1655    8.5318    4.8658 N.ar    1  LIG1       -0.2057
      6 N           5.6249    6.8735    3.9212 N.ar    1  LIG1       -0.2024
      7 N           5.1520    4.6091    4.0845 N.pl3   1  LIG1       -0.3064
      8 C           3.3822    7.5167    5.2565 C.ar    1  LIG1        0.1357
      9 C           3.6267    6.1949    5.0614 C.ar    1  LIG1        0.0153
     10 H           3.0363    5.5224    5.3818 H       1  LIG1        0.0682
     11 C           4.8016    5.8777    4.3586 C.ar    1  LIG1        0.1279
     12 C           5.2363    8.1046    4.2145 C.ar    1  LIG1        0.2258
     13 C           4.4699    3.4586    4.6720 C.3     1  LIG1        0.0389
     14 H           4.0405    3.7442    5.5163 H       1  LIG1        0.0513
     15 H           5.1475    2.7723    4.8981 H       1  LIG1        0.0513
     16 C           3.4195    2.8261    3.7855 C.ar    1  LIG1       -0.0299
     17 C           2.6515    3.5659    2.8927 C.ar    1  LIG1       -0.0536
     18 H           2.8191    4.4959    2.7961 H       1  LIG1        0.0622
     19 C           1.6443    2.9735    2.1400 C.ar    1  LIG1       -0.0196
     20 H           1.1318    3.4937    1.5330 H       1  LIG1        0.0654
     21 C           1.3942    1.6189    2.2805 C.ar    1  LIG1        0.1201
     22 C           2.1649    0.8620    3.1574 C.ar    1  LIG1       -0.0196
     23 H           2.0009   -0.0697    3.2487 H       1  LIG1        0.0654
     24 C           3.1669    1.4610    3.8960 C.ar    1  LIG1       -0.0536
     25 H           3.6916    0.9345    4.4877 H       1  LIG1        0.0622
     26 C          -0.3237    1.6509    0.6208 C.3     1  LIG1        0.0788
     27 H          -0.9983    1.0618    0.2242 H       1  LIG1        0.0660
     28 H           0.2894    1.9631   -0.0776 H       1  LIG1        0.0660
     29 H          -0.7655    2.4207    1.0364 H       1  LIG1        0.0660
     30 C           6.2656    4.2824    3.1782 C.3     1  LIG1        0.0389
     31 H           6.5128    5.0920    2.6650 H       1  LIG1        0.0513
     32 H           5.9641    3.5947    2.5323 H       1  LIG1        0.0513
     33 C           7.4821    3.7732    3.9059 C.ar    1  LIG1       -0.0299
     34 C           7.9333    2.4726    3.7152 C.ar    1  LIG1       -0.0536
     35 H           7.4674    1.8994    3.1177 H       1  LIG1        0.0622
     36 C           9.0500    1.9978    4.3791 C.ar    1  LIG1       -0.0196
     37 H           9.3361    1.1012    4.2463 H       1  LIG1        0.0654
     38 C           9.7541    2.8299    5.2404 C.ar    1  LIG1        0.1201
     39 C           9.3206    4.1305    5.4465 C.ar    1  LIG1       -0.0196
     40 H           9.7936    4.7051    6.0362 H       1  LIG1        0.0654
     41 C           8.1894    4.5845    4.7843 C.ar    1  LIG1       -0.0536
     42 H           7.8902    5.4739    4.9361 H       1  LIG1        0.0622
     43 C          11.6472    3.1057    6.6777 C.3     1  LIG1        0.0788
     44 H          12.4861    2.6511    6.9036 H       1  LIG1        0.0660
     45 H          11.1436    3.2896    7.4985 H       1  LIG1        0.0660
     46 H          11.8470    3.9493    6.2207 H       1  LIG1        0.0660
@<TRIPOS>BOND
     1    28    26    1
     2    27    26    1
     3    26    29    1
     4    26     3    1
     5    20    19    1
     6     3    21    1
     7    19    21   ar
     8    19    17   ar
     9    21    22   ar
    10    32    30    1
    11    31    30    1
    12    18    17    1
    13    17    16   ar
    14    35    34    1
    15    22    23    1
    16    22    24   ar
    17    30    33    1
    18    30     7    1
    19     2    12    1
    20    34    33   ar
    21    34    36   ar
    22    16    24   ar
    23    16    13    1
    24    24    25    1
    25    33    41   ar
    26     6    12   ar
    27     6    11   ar
    28     7    11    1
    29     7    13    1
    30    12     5   ar
    31    37    36    1
    32    11     9   ar
    33    36    38   ar
    34    13    15    1
    35    13    14    1
    36    41    42    1
    37    41    39   ar
    38     5     8   ar
    39     9     8   ar
    40     9    10    1
    41    38    39   ar
    42    38     4    1
    43     8     1    1
    44    39    40    1
    45     4    43    1
    46    46    43    1
    47    43    44    1
    48    43    45    1
