@<TRIPOS>MOLECULE
?
 46 50 0 0 0
SMALL
GASTEIGER

@<TRIPOS>ATOM
      1 CL          4.6281   -2.1327   -0.8585 Cl      1  LIG1       -0.0835
      2 N           3.7539    0.7866    5.7055 N.am    1  LIG1       -0.2360
      3 N           1.1233   -2.6444    3.9667 N.ar    1  LIG1       -0.2509
      4 O           5.1179    0.8495    3.7733 O.2     1  LIG1       -0.2692
      5 C           4.1704    0.3684    4.4051 C.2     1  LIG1        0.2565
      6 C           3.2256   -0.7106    3.9972 C.ar    1  LIG1        0.0574
      7 C           2.3180   -0.8663    5.0265 C.ar    1  LIG1        0.0305
      8 C           2.5764    0.0648    6.1108 C.2     1  LIG1        0.0478
      9 C           1.7313    0.1376    7.1635 C.2     1  LIG1       -0.0555
     10 H           1.9562    0.6434    7.9111 H       1  LIG1        0.0596
     11 C           0.3919   -0.6238    7.1157 C.3     1  LIG1       -0.0094
     12 C           0.4764   -1.9585    6.2888 C.3     1  LIG1       -0.0011
     13 H           0.8712   -2.6472    6.8461 H       1  LIG1        0.0337
     14 H          -0.4227   -2.2429    6.0609 H       1  LIG1        0.0337
     15 C           1.2879   -1.8375    5.0143 C.ar    1  LIG1        0.0524
     16 C           2.0025   -2.4852    2.8682 C.ar    1  LIG1        0.0721
     17 C           3.0831   -1.5379    2.8306 C.ar    1  LIG1        0.0145
     18 C           3.9049   -1.4435    1.6660 C.ar    1  LIG1       -0.0335
     19 H           4.6013   -0.8271    1.6294 H       1  LIG1        0.0639
     20 C           3.6519   -2.2803    0.5930 C.ar    1  LIG1        0.0417
     21 C           2.6086   -3.2297    0.6265 C.ar    1  LIG1       -0.0413
     22 H           2.4626   -3.7879   -0.1027 H       1  LIG1        0.0633
     23 C           1.8066   -3.3264    1.7393 C.ar    1  LIG1       -0.0343
     24 H           1.1219   -3.9554    1.7535 H       1  LIG1        0.0639
     25 C           4.3755    1.8726    6.4312 C.ar    1  LIG1        0.0416
     26 C           3.6008    2.8440    7.0811 C.ar    1  LIG1       -0.0397
     27 H           2.6724    2.7971    7.0475 H       1  LIG1        0.0636
     28 C           4.2235    3.8791    7.7778 C.ar    1  LIG1       -0.0571
     29 H           3.6987    4.5031    8.2264 H       1  LIG1        0.0621
     30 C           5.6208    4.0050    7.8215 C.ar    1  LIG1       -0.0503
     31 C           6.3728    3.0395    7.1431 C.ar    1  LIG1       -0.0571
     32 H           7.3002    3.1093    7.1431 H       1  LIG1        0.0621
     33 C           5.7739    1.9746    6.4647 C.ar    1  LIG1       -0.0397
     34 H           6.2989    1.3365    6.0386 H       1  LIG1        0.0636
     35 C           6.2923    5.1523    8.5620 C.3     1  LIG1       -0.0397
     36 H           6.4566    4.8936    9.4723 H       1  LIG1        0.0278
     37 H           5.7201    5.9224    8.5467 H       1  LIG1        0.0278
     38 H           7.1257    5.3645    8.1348 H       1  LIG1        0.0278
     39 C          -0.0834   -0.9510    8.5559 C.3     1  LIG1       -0.0559
     40 H           0.5558   -1.5263    8.9810 H       1  LIG1        0.0238
     41 H          -0.9358   -1.3910    8.5193 H       1  LIG1        0.0238
     42 H          -0.1649   -0.1367    9.0583 H       1  LIG1        0.0238
     43 C          -0.6297    0.3213    6.4271 C.3     1  LIG1       -0.0559
     44 H          -1.4996   -0.0861    6.4362 H       1  LIG1        0.0238
     45 H          -0.3597    0.4783    5.5198 H       1  LIG1        0.0238
     46 H          -0.6635    1.1563    6.9011 H       1  LIG1        0.0238
@<TRIPOS>BOND
     1     1    20    1
     2    22    21    1
     3    20    21   ar
     4    20    18   ar
     5    21    23   ar
     6    19    18    1
     7    18    17   ar
     8    23    24    1
     9    23    16   ar
    10    17    16   ar
    11    17     6   ar
    12    16     3   ar
    13     4     5    2
    14     3    15   ar
    15     6     5    1
    16     6     7   ar
    17     5     2   am
    18    15     7   ar
    19    15    12    1
    20     7     8    1
    21    45    43    1
    22     2     8    1
    23     2    25    1
    24    34    33    1
    25    14    12    1
    26     8     9    2
    27    12    13    1
    28    12    11    1
    29    43    44    1
    30    43    46    1
    31    43    11    1
    32    25    33   ar
    33    25    26   ar
    34    33    31   ar
    35    27    26    1
    36    26    28   ar
    37    11     9    1
    38    11    39    1
    39    31    32    1
    40    31    30   ar
    41     9    10    1
    42    28    30   ar
    43    28    29    1
    44    30    35    1
    45    38    35    1
    46    41    39    1
    47    37    35    1
    48    39    40    1
    49    39    42    1
    50    35    36    1
