@<TRIPOS>MOLECULE
?
 70 77 0 0 0
SMALL
GASTEIGER

@<TRIPOS>ATOM
      1 C           4.3913   11.8232    3.0582 C.ar    1  LIG1       -0.0499
      2 H           4.0942   11.7553    3.9363 H       1  LIG1        0.0625
      3 C           4.0738   12.9457    2.3225 C.ar    1  LIG1       -0.0427
      4 H           3.5606   13.6248    2.6956 H       1  LIG1        0.0632
      5 C           4.5256   13.0452    1.0249 C.ar    1  LIG1        0.0410
      6 C           5.2757   12.0528    0.4555 C.ar    1  LIG1       -0.0427
      7 H           5.5779   12.1384   -0.4210 H       1  LIG1        0.0632
      8 C           5.5836   10.9120    1.1993 C.ar    1  LIG1       -0.0499
      9 H           6.0825   10.2281    0.8136 H       1  LIG1        0.0625
     10 C           5.1480   10.7915    2.5122 C.ar    1  LIG1        0.0179
     11 C           5.4735    9.6092    3.3664 C.2     1  LIG1        0.1698
     12 C           6.6837    8.7449    2.9957 C.3     1  LIG1        0.0678
     13 H           6.5679    8.4047    2.0843 H       1  LIG1        0.0418
     14 C           6.8892    7.5385    3.9704 C.3     1  LIG1        0.0982
     15 H           6.2179    7.5723    4.6840 H       1  LIG1        0.0590
     16 C           6.7723    6.2152    3.2188 C.2     1  LIG1        0.1841
     17 C           5.4065    5.8031    2.7298 C.ar    1  LIG1        0.0193
     18 C           5.3179    5.0153    1.5932 C.ar    1  LIG1       -0.0512
     19 H           6.0910    4.7473    1.1523 H       1  LIG1        0.0625
     20 C           4.0700    4.6261    1.1118 C.ar    1  LIG1       -0.0611
     21 H           4.0082    4.1029    0.3461 H       1  LIG1        0.0618
     22 C           2.9247    5.0194    1.7786 C.ar    1  LIG1       -0.0617
     23 H           2.0924    4.7586    1.4549 H       1  LIG1        0.0618
     24 C           3.0004    5.7847    2.8994 C.ar    1  LIG1       -0.0611
     25 H           2.2237    6.0322    3.3474 H       1  LIG1        0.0618
     26 C           4.2352    6.1954    3.3759 C.ar    1  LIG1       -0.0512
     27 H           4.2831    6.7371    4.1311 H       1  LIG1        0.0625
     28 C           8.0056    9.5618    3.0703 C.3     1  LIG1        0.1076
     29 C           8.4376   10.1221    1.7124 C.2     1  LIG1        0.2307
     30 C           8.4026   11.8808    3.1713 C.ar    1  LIG1        0.0377
     31 C           8.4834   13.1453    3.7040 C.ar    1  LIG1       -0.0399
     32 H           8.7799   13.8635    3.1946 H       1  LIG1        0.0636
     33 C           8.1053   13.3115    5.0307 C.ar    1  LIG1       -0.0571
     34 H           8.1468   14.1622    5.4047 H       1  LIG1        0.0621
     35 C           7.6667   12.2525    5.8212 C.ar    1  LIG1       -0.0500
     36 C           7.2527   12.4543    7.2561 C.3     1  LIG1       -0.0397
     37 H           6.2982   12.5348    7.3061 H       1  LIG1        0.0278
     38 H           7.6593   13.2559    7.5953 H       1  LIG1        0.0278
     39 H           7.5395   11.7039    7.7811 H       1  LIG1        0.0278
     40 C           7.6062   10.9792    5.2519 C.ar    1  LIG1       -0.0528
     41 H           7.3213   10.2542    5.7613 H       1  LIG1        0.0624
     42 C           7.9691   10.7969    3.9325 C.ar    1  LIG1       -0.0082
     43 C           9.0163    8.4733    3.5825 C.3     1  LIG1        0.0617
     44 H           9.2482    7.8868    2.8320 H       1  LIG1        0.0558
     45 C          10.2689    9.0253    4.1531 C.2     1  LIG1       -0.0619
     46 H          10.9033    9.3984    3.5841 H       1  LIG1        0.0591
     47 C          10.5022    8.9981    5.4528 C.2     1  LIG1       -0.0549
     48 H          11.2667    9.4160    5.7793 H       1  LIG1        0.0622
     49 C           9.6107    8.3401    6.3924 C.ar    1  LIG1       -0.0021
     50 C           9.8739    8.3272    7.7846 C.ar    1  LIG1       -0.0521
     51 H          10.5994    8.8109    8.1093 H       1  LIG1        0.0624
     52 C           9.1088    7.6366    8.6565 C.ar    1  LIG1       -0.0519
     53 H           9.2903    7.6770    9.5672 H       1  LIG1        0.0624
     54 C           8.0375    6.8564    8.1884 C.ar    1  LIG1        0.0022
     55 C           7.7211    6.8456    6.8006 C.ar    1  LIG1        0.0925
     56 C           8.4938    7.6575    5.8971 C.ar    1  LIG1        0.0643
     57 C           7.2470    6.0349    9.0315 C.ar    1  LIG1       -0.0511
     58 H           7.4088    6.0183    9.9463 H       1  LIG1        0.0625
     59 C           6.2631    5.2790    8.5138 C.ar    1  LIG1       -0.0430
     60 H           5.7353    4.7454    9.0638 H       1  LIG1        0.0633
     61 C           6.0450    5.3081    7.1295 C.ar    1  LIG1        0.0283
     62 H           5.3702    4.7699    6.7847 H       1  LIG1        0.0830
     63 CL          4.0925   14.4269    0.0647 Cl      1  LIG1       -0.0835
     64 N           8.7081   11.4428    1.8655 N.am    1  LIG1       -0.2844
     65 H           9.0243   11.9480    1.2452 H       1  LIG1        0.1548
     66 N           8.2166    7.7086    4.5385 N.pl3   1  LIG1       -0.3089
     67 N           6.7344    6.0474    6.2868 N.ar    1  LIG1       -0.2531
     68 O           4.8184    9.3760    4.3618 O.2     1  LIG1       -0.2916
     69 O           8.5206    9.4751    0.6701 O.2     1  LIG1       -0.2744
     70 O           7.7474    5.5415    2.9727 O.2     1  LIG1       -0.2900
@<TRIPOS>BOND
     1     7     6    1
     2    63     5    1
     3    21    20    1
     4     6     5   ar
     5     6     8   ar
     6    69    29    2
     7     9     8    1
     8     5     3   ar
     9    20    18   ar
    10    20    22   ar
    11    19    18    1
    12     8    10   ar
    13    65    64    1
    14    23    22    1
    15    18    17   ar
    16    29    64   am
    17    29    28    1
    18    22    24   ar
    19    64    30    1
    20    13    12    1
    21     3     4    1
    22     3     1   ar
    23    10     1   ar
    24    10    11    1
    25    17    16    1
    26    17    26   ar
    27    44    43    1
    28    24    25    1
    29    24    26   ar
    30    70    16    2
    31    12    28    1
    32    12    11    1
    33    12    14    1
    34     1     2    1
    35    28    43    1
    36    28    42    1
    37    30    31   ar
    38    30    42   ar
    39    32    31    1
    40    16    14    1
    41    11    68    2
    42    26    27    1
    43    43    45    1
    44    43    66    1
    45    46    45    1
    46    31    33   ar
    47    42    40   ar
    48    14    66    1
    49    14    15    1
    50    45    47    2
    51    66    56    1
    52    33    34    1
    53    33    35   ar
    54    40    41    1
    55    40    35   ar
    56    47    48    1
    57    47    49    1
    58    35    36    1
    59    56    49   ar
    60    56    55   ar
    61    67    55   ar
    62    67    61   ar
    63    49    50   ar
    64    62    61    1
    65    55    54   ar
    66    61    59   ar
    67    36    37    1
    68    36    38    1
    69    36    39    1
    70    50    51    1
    71    50    52   ar
    72    54    52   ar
    73    54    57   ar
    74    59    57   ar
    75    59    60    1
    76    52    53    1
    77    57    58    1
