@<TRIPOS>MOLECULE
(1R,2R,4S,5R,6R,8S,9R,10R,12S)-3,4,7,8,11,12-hexahydro-2,6,10-trihydroxy- 1,5,9,13,13',14,14',15,15'-nonamethyl-1,4:5,8:9,12-trimethanotriphenylene x 2.5 H2O
 83 86 0 0 0
SMALL
GASTEIGER

@<TRIPOS>ATOM
      1 C           1.0438    8.6296   64.8887 C.ar    1  LIG1       -0.0355
      2 C           0.8087   10.0218   64.8699 C.ar    1  LIG1       -0.0310
      3 C           1.8437   10.8922   64.6182 C.ar    1  LIG1       -0.0355
      4 C           3.1457   10.3913   64.3820 C.ar    1  LIG1       -0.0310
      5 C           3.3732    9.0445   64.3959 C.ar    1  LIG1       -0.0355
      6 C           2.2977    8.1458   64.6411 C.ar    1  LIG1       -0.0310
      7 C          -0.2706    7.9860   65.2222 C.3     1  LIG1       -0.0069
      8 H          -0.3443    7.0362   64.9917 H       1  LIG1        0.0355
      9 C          -0.5271    8.3319   66.7178 C.3     1  LIG1       -0.0186
     10 H          -1.2850    7.8377   67.0676 H       1  LIG1        0.0296
     11 H           0.2537    8.1382   67.2638 H       1  LIG1        0.0296
     12 C          -0.8174    9.8460   66.6802 C.3     1  LIG1        0.0657
     13 H          -1.7384   10.0123   66.9696 H       1  LIG1        0.0602
     14 O           0.0895   10.5510   67.5270 O.3     1  LIG1       -0.3909
     15 H          -0.2210   11.2891   67.7051 H       1  LIG1        0.2098
     16 C          -0.6728   10.2136   65.1633 C.3     1  LIG1        0.0251
     17 C          -1.3079   11.5349   64.7808 C.3     1  LIG1       -0.0526
     18 H          -1.1535   11.7059   63.8475 H       1  LIG1        0.0239
     19 H          -0.9194   12.2399   65.3023 H       1  LIG1        0.0239
     20 H          -2.2519   11.4952   64.9508 H       1  LIG1        0.0239
     21 C          -1.2539    8.9236   64.4907 C.3     1  LIG1       -0.0162
     22 C          -2.7146    8.6353   64.7972 C.3     1  LIG1       -0.0584
     23 H          -2.8892    8.8149   65.7273 H       1  LIG1        0.0235
     24 H          -2.9067    7.7148   64.6076 H       1  LIG1        0.0235
     25 H          -3.2723    9.1967   64.2561 H       1  LIG1        0.0235
     26 C          -1.0646    8.9018   62.9632 C.3     1  LIG1       -0.0584
     27 H          -1.6795    9.5152   62.5561 H       1  LIG1        0.0235
     28 H          -1.2294    8.0153   62.6297 H       1  LIG1        0.0235
     29 H          -0.1653    9.1608   62.7523 H       1  LIG1        0.0235
     30 C           1.9491   12.3921   64.5634 C.3     1  LIG1       -0.0069
     31 H           1.1071   12.8674   64.4032 H       1  LIG1        0.0355
     32 C           2.7070   12.7918   65.8499 C.3     1  LIG1       -0.0186
     33 H           2.7091   13.7539   65.9725 H       1  LIG1        0.0296
     34 H           2.3174   12.3722   66.6345 H       1  LIG1        0.0296
     35 C           4.1246   12.2626   65.5834 C.3     1  LIG1        0.0657
     36 H           4.7291   13.0319   65.5229 H       1  LIG1        0.0602
     37 O           4.6282   11.3827   66.5822 O.3     1  LIG1       -0.3909
     38 H           4.0351   10.8676   66.8143 H       1  LIG1        0.2098
     39 C           4.0384   11.6086   64.1752 C.3     1  LIG1        0.0251
     40 C           5.3812   11.3903   63.5173 C.3     1  LIG1       -0.0526
     41 H           5.2595   10.9224   62.6869 H       1  LIG1        0.0239
     42 H           5.9421   10.8705   64.1008 H       1  LIG1        0.0239
     43 H           5.7970   12.2390   63.3489 H       1  LIG1        0.0239
     44 C           3.0333   12.5801   63.4740 C.3     1  LIG1       -0.0162
     45 C           2.5913   12.1038   62.0862 C.3     1  LIG1       -0.0584
     46 H           3.3094   12.2286   61.4610 H       1  LIG1        0.0235
     47 H           1.8279   12.6113   61.8042 H       1  LIG1        0.0235
     48 H           2.3605   11.1729   62.1230 H       1  LIG1        0.0235
     49 C           3.5413   14.0252   63.3326 C.3     1  LIG1       -0.0584
     50 H           2.8417   14.5771   62.9730 H       1  LIG1        0.0235
     51 H           4.2964   14.0422   62.7360 H       1  LIG1        0.0235
     52 H           3.8043   14.3579   64.1907 H       1  LIG1        0.0235
     53 C           4.5916    8.1722   64.2120 C.3     1  LIG1       -0.0069
     54 H           5.3463    8.5985   63.7576 H       1  LIG1        0.0355
     55 C           4.9092    7.5919   65.6178 C.3     1  LIG1       -0.0186
     56 H           5.7642    7.1317   65.6210 H       1  LIG1        0.0296
     57 H           4.9212    8.2894   66.2912 H       1  LIG1        0.0296
     58 C           3.7492    6.6090   65.8531 C.3     1  LIG1        0.0657
     59 H           4.1049    5.6980   65.9071 H       1  LIG1        0.0602
     60 O           2.9929    6.8945   67.0464 O.3     1  LIG1       -0.3909
     61 H           3.0649    7.6902   67.2311 H       1  LIG1        0.2098
     62 C           2.8767    6.7385   64.5790 C.3     1  LIG1        0.0251
     63 C           1.9229    5.5855   64.3640 C.3     1  LIG1       -0.0526
     64 H           1.3941    5.7490   63.5778 H       1  LIG1        0.0239
     65 H           1.3472    5.4995   65.1306 H       1  LIG1        0.0239
     66 H           2.4232    4.7737   64.2480 H       1  LIG1        0.0239
     67 C           3.9892    6.9568   63.4920 C.3     1  LIG1       -0.0162
     68 C           3.4119    7.2876   62.1164 C.3     1  LIG1       -0.0584
     69 H           4.1071    7.6373   61.5509 H       1  LIG1        0.0235
     70 H           2.7162    7.9426   62.2129 H       1  LIG1        0.0235
     71 H           3.0502    6.4909   61.7225 H       1  LIG1        0.0235
     72 C           4.9540    5.7717   63.3457 C.3     1  LIG1       -0.0584
     73 H           5.6906    6.0250   62.7850 H       1  LIG1        0.0235
     74 H           4.4912    5.0288   62.9484 H       1  LIG1        0.0235
     75 H           5.2846    5.5184   64.2071 H       1  LIG1        0.0235
     76 O           2.7064    9.6683   67.8130 O.3     2  HOH2       -0.4105
     77 H           1.9261    9.7250   67.5825 H       0  HOH0        0.2052
     78 H           2.7392    9.6589   68.6344 H       0  HOH0        0.2052
     79 O           6.8861   11.9271   68.1056 O.3     3  HOH3       -0.2528
     80 H           6.2368   11.6719   67.6724 H       0  HOH0        0.2528
     81 O          -1.3385   12.8259   68.1530 O.3     4  HOH4       -0.4105
     82 H          -1.1622   13.5810   68.4162 H       0  HOH0        0.2052
     83 H          -2.1390   12.6642   68.0484 H       0  HOH0        0.2052
@<TRIPOS>BOND
     1    46    45    1
     2    69    68    1
     3    71    68    1
     4    47    45    1
     5    45    48    1
     6    45    44    1
     7    68    70    1
     8    68    67    1
     9    27    26    1
    10    28    26    1
    11    41    40    1
    12    51    49    1
    13    29    26    1
    14    73    72    1
    15    74    72    1
    16    26    21    1
    17    50    49    1
    18    49    44    1
    19    49    52    1
    20    72    67    1
    21    72    75    1
    22    43    40    1
    23    44    39    1
    24    44    30    1
    25    67    53    1
    26    67    62    1
    27    40    42    1
    28    40    39    1
    29    64    63    1
    30    54    53    1
    31    18    17    1
    32    39     4    1
    33    39    35    1
    34    53     5    1
    35    53    55    1
    36    66    63    1
    37    25    22    1
    38    63    62    1
    39    63    65    1
    40     4     5   ar
    41     4     3   ar
    42     5     6   ar
    43    31    30    1
    44    21    22    1
    45    21    16    1
    46    21     7    1
    47    30     3    1
    48    30    32    1
    49    62     6    1
    50    62    58    1
    51    24    22    1
    52     3     2   ar
    53     6     1   ar
    54    17    20    1
    55    17    16    1
    56    17    19    1
    57    22    23    1
    58     2     1   ar
    59     2    16    1
    60     1     7    1
    61     8     7    1
    62    16    12    1
    63     7     9    1
    64    36    35    1
    65    35    32    1
    66    35    37    1
    67    55    56    1
    68    55    58    1
    69    55    57    1
    70    32    33    1
    71    32    34    1
    72    58    59    1
    73    58    60    1
    74    37    38    1
    75    12     9    1
    76    12    13    1
    77    12    14    1
    78     9    10    1
    79     9    11    1
    80    60    61    1
    81    14    15    1
    82    77    76    1
    83    80    79    1
    84    76    78    1
    85    83    81    1
    86    81    82    1
