@<TRIPOS>MOLECULE
C10 H11 Br1 Cl1 N1 O3
 27 28 0 0 0
SMALL
GASTEIGER

@<TRIPOS>ATOM
      1 C           5.8757    3.7633    5.3452 C.3     1  LIG1        0.0894
      2 C           6.7052    3.8863    6.6098 C.3     1  LIG1        0.0063
      3 C           5.6656    4.3225    7.6320 C.3     1  LIG1        0.0862
      4 C           4.8133    5.2868    6.8171 C.3     1  LIG1        0.1083
      5 C           5.3260    6.7124    6.8034 C.3     1  LIG1        0.0728
      6 O           4.8613    4.7762    5.4636 O.3     1  LIG1       -0.3638
      7 O           4.9671    7.3446    8.0165 O.3     1  LIG1       -0.3924
      8 O           4.9176    3.1756    8.0284 O.3     1  LIG1       -0.3891
      9 C           6.6583    3.9863    4.0734 C.ar    1  LIG1        0.0181
     10 C           7.5172    3.0331    3.5458 C.ar    1  LIG1        0.1361
     11 N           8.2996    3.1735    2.4969 N.ar    1  LIG1       -0.2282
     12 C           8.2133    4.3455    1.8692 C.ar    1  LIG1        0.1079
     13 C           7.3653    5.3667    2.2280 C.ar    1  LIG1       -0.0288
     14 C           6.5852    5.1611    3.3549 C.ar    1  LIG1       -0.0507
     15 CL          7.6483    1.4764    4.3355 Cl      1  LIG1       -0.0616
     16 BR          9.3854    4.5824    0.3950 Br      1  LIG1       -0.0287
     17 H           6.0187    5.8343    3.6302 H       1  LIG1        0.0623
     18 H           7.3258    6.1504    1.7527 H       1  LIG1        0.0644
     19 H           5.4593    2.8706    5.3397 H       1  LIG1        0.0648
     20 H           3.8902    5.2965    7.1576 H       1  LIG1        0.0645
     21 H           6.0680    4.7630    8.4148 H       1  LIG1        0.0621
     22 H           7.3900    4.5636    6.5088 H       1  LIG1        0.0319
     23 H           7.1234    3.0331    6.8236 H       1  LIG1        0.0319
     24 H           6.2954    6.7249    6.6951 H       1  LIG1        0.0584
     25 H           4.9219    7.2001    6.0711 H       1  LIG1        0.0584
     26 H           4.9836    8.1553    8.1569 H       1  LIG1        0.2095
     27 H           4.5462    3.2763    8.7570 H       1  LIG1        0.2099
@<TRIPOS>BOND
     1    16    12    1
     2    18    13    1
     3    12    13   ar
     4    12    11   ar
     5    13    14   ar
     6    11    10   ar
     7    14    17    1
     8    14     9   ar
     9    10     9   ar
    10    10    15    1
    11     9     1    1
    12    19     1    1
    13     1     6    1
    14     1     2    1
    15     6     4    1
    16    25     5    1
    17    22     2    1
    18     2    23    1
    19     2     3    1
    20    24     5    1
    21     5     4    1
    22     5     7    1
    23     4    20    1
    24     4     3    1
    25     3     8    1
    26     3    21    1
    27     7    26    1
    28     8    27    1
