@<TRIPOS>MOLECULE
?
 28 29 0 0 0
SMALL
GASTEIGER

@<TRIPOS>ATOM
      1 I          -0.3150    0.9896   21.8314 I       1  LIG1       -0.0438
      2 O          -1.8325    3.1117   15.7873 O.2     1  LIG1       -0.2920
      3 C          -1.0979    2.5112   15.0396 C.2     1  LIG1        0.1634
      4 C          -1.3311    2.5386   13.6000 C.2     1  LIG1       -0.0225
      5 H          -1.9700    3.1244   13.2624 H       1  LIG1        0.0649
      6 C          -0.6754    1.7702   12.7554 C.2     1  LIG1       -0.0804
      7 H          -0.8695    1.8424   11.8478 H       1  LIG1        0.0573
      8 C           0.3502    0.8006   13.1782 C.3     1  LIG1       -0.0308
      9 H           1.2267    1.1716   12.9909 H       1  LIG1        0.0310
     10 H           0.2528   -0.0078   12.6509 H       1  LIG1        0.0310
     11 C           0.2773    0.4345   14.6611 C.3     1  LIG1       -0.0266
     12 H          -0.5193   -0.1211   14.7910 H       1  LIG1        0.0311
     13 C           0.1033    1.7116   15.5071 C.3     1  LIG1        0.0494
     14 H           0.8912    2.2681   15.3362 H       1  LIG1        0.0432
     15 C           1.4779   -0.3808   15.0784 C.3     1  LIG1       -0.0612
     16 H           2.2740    0.1465   14.9735 H       1  LIG1        0.0233
     17 H           1.5388   -1.1648   14.5286 H       1  LIG1        0.0233
     18 H           1.3844   -0.6405   15.9979 H       1  LIG1        0.0233
     19 C           0.0696    1.4616   16.9990 C.ar    1  LIG1       -0.0365
     20 C           1.0337    1.9645   17.8409 C.ar    1  LIG1       -0.0569
     21 H           1.7520    2.4321   17.4786 H       1  LIG1        0.0621
     22 C           0.9625    1.7936   19.2102 C.ar    1  LIG1       -0.0483
     23 H           1.6269    2.1353   19.7646 H       1  LIG1        0.0628
     24 C          -0.1077    1.1111   19.7427 C.ar    1  LIG1        0.0134
     25 C          -1.0652    0.5556   18.9303 C.ar    1  LIG1       -0.0483
     26 H          -1.7640    0.0635   19.2969 H       1  LIG1        0.0628
     27 C          -0.9804    0.7372   17.5678 C.ar    1  LIG1       -0.0569
     28 H          -1.6335    0.3700   17.0154 H       1  LIG1        0.0621
@<TRIPOS>BOND
     1     7     6    1
     2    10     8    1
     3     6     8    1
     4     6     4    2
     5     9     8    1
     6     8    11    1
     7     5     4    1
     8     4     3    1
     9    17    15    1
    10    11    12    1
    11    11    15    1
    12    11    13    1
    13    16    15    1
    14     3    13    1
    15     3     2    2
    16    15    18    1
    17    14    13    1
    18    13    19    1
    19    19    27   ar
    20    19    20   ar
    21    28    27    1
    22    21    20    1
    23    27    25   ar
    24    20    22   ar
    25    25    26    1
    26    25    24   ar
    27    22    24   ar
    28    22    23    1
    29    24     1    1
