@<TRIPOS>MOLECULE
?
 38 41 0 0 0
SMALL
GASTEIGER

@<TRIPOS>ATOM
      1 S           7.8246    1.0760    5.8259 S.O2    1  LIG1        0.0616
      2 N           7.0639    1.6653    7.1248 N.3     1  LIG1       -0.1656
      3 O           4.4737    5.1610    7.7234 O.3     1  LIG1       -0.3609
      4 O           3.1861    3.7389    5.6884 O.3     1  LIG1       -0.3891
      5 H           3.8532    4.1617    5.4664 H       1  LIG1        0.2099
      6 O           6.8493    0.9748    4.7847 O.2     1  LIG1       -0.1528
      7 O           8.5347   -0.0910    6.2678 O.2     1  LIG1       -0.1528
      8 C           4.9014    4.1927    8.7387 C.3     1  LIG1        0.1103
      9 H           4.8638    4.4760    9.6761 H       1  LIG1        0.0671
     10 C           3.6250    4.0346    8.0296 C.3     1  LIG1        0.1153
     11 H           2.8194    4.2351    8.5493 H       1  LIG1        0.0651
     12 C           3.4493    3.0401    6.8943 C.3     1  LIG1        0.0859
     13 H           2.6454    2.5192    7.0983 H       1  LIG1        0.0621
     14 C           4.6006    2.0395    6.7717 C.3     1  LIG1       -0.0031
     15 H           4.4732    1.3325    7.4237 H       1  LIG1        0.0310
     16 H           4.5745    1.6364    5.8902 H       1  LIG1        0.0310
     17 C           5.9683    2.6659    6.9866 C.3     1  LIG1        0.0581
     18 H           6.1728    3.3089    6.2751 H       1  LIG1        0.0528
     19 C           6.0181    3.3316    8.3380 C.2     1  LIG1       -0.0225
     20 C           7.0249    2.9068    9.0775 C.2     1  LIG1       -0.0651
     21 H           7.2083    3.2159    9.9347 H       1  LIG1        0.0586
     22 C           7.8316    1.8751    8.3757 C.3     1  LIG1        0.0397
     23 H           8.7278    2.1966    8.1887 H       1  LIG1        0.0487
     24 H           7.8874    1.0585    8.8966 H       1  LIG1        0.0487
     25 C           9.0324    2.2566    5.3195 C.ar    1  LIG1        0.1055
     26 C           8.6552    3.2975    4.4877 C.ar    1  LIG1       -0.0351
     27 H           7.7792    3.3627    4.1854 H       1  LIG1        0.0637
     28 C           9.5970    4.2423    4.1113 C.ar    1  LIG1       -0.0570
     29 H           9.3455    4.9349    3.5443 H       1  LIG1        0.0621
     30 C          10.9097    4.1762    4.5618 C.ar    1  LIG1       -0.0503
     31 C          11.2588    3.1218    5.3935 C.ar    1  LIG1       -0.0570
     32 H          12.1338    3.0567    5.7020 H       1  LIG1        0.0621
     33 C          10.3375    2.1667    5.7736 C.ar    1  LIG1       -0.0351
     34 H          10.5916    1.4668    6.3309 H       1  LIG1        0.0637
     35 C          11.9193    5.2099    4.1490 C.3     1  LIG1       -0.0397
     36 H          12.2727    4.9845    3.2845 H       1  LIG1        0.0278
     37 H          12.6341    5.2326    4.7901 H       1  LIG1        0.0278
     38 H          11.4989    6.0710    4.1077 H       1  LIG1        0.0278
@<TRIPOS>BOND
     1    36    35    1
     2    29    28    1
     3    38    35    1
     4    28    26   ar
     5    28    30   ar
     6    35    30    1
     7    35    37    1
     8    27    26    1
     9    26    25   ar
    10    30    31   ar
    11     6     1    2
    12    25    33   ar
    13    25     1    1
    14    31    32    1
    15    31    33   ar
    16     5     4    1
    17     4    12    1
    18    33    34    1
    19     1     7    2
    20     1     2    1
    21    16    14    1
    22    18    17    1
    23    14    12    1
    24    14    17    1
    25    14    15    1
    26    12    13    1
    27    12    10    1
    28    17     2    1
    29    17    19    1
    30     2    22    1
    31     3    10    1
    32     3     8    1
    33    10    11    1
    34    10     8    1
    35    23    22    1
    36    19     8    1
    37    19    20    2
    38    22    24    1
    39    22    20    1
    40     8     9    1
    41    20    21    1
