@<TRIPOS>MOLECULE
C22 H24 N2 O3
 51 54 0 0 0
SMALL
GASTEIGER

@<TRIPOS>ATOM
      1 O          18.4859    2.1046   18.0384 O.3     1  LIG1       -0.4661
      2 C          19.9053    1.9643   18.0889 C.3     1  LIG1        0.0817
      3 C          17.8160    1.0760   17.5720 C.2     1  LIG1        0.3398
      4 O          18.3203    0.0777   17.2071 O.2     1  LIG1       -0.2479
      5 C          16.3301    1.3890   17.5695 C.3     1  LIG1        0.2062
      6 N          15.5840    0.2096   17.2708 N.pl3   1  LIG1       -0.3027
      7 C          14.2965    0.3906   16.7418 C.ar    1  LIG1        0.0359
      8 C          13.9449   -0.4419   15.7036 C.ar    1  LIG1       -0.0401
      9 C          12.7377   -0.3190   15.0878 C.ar    1  LIG1       -0.0571
     10 C          11.8428    0.6251   15.4789 C.ar    1  LIG1       -0.0500
     11 C          10.5150    0.7782   14.8212 C.3     1  LIG1       -0.0397
     12 C          12.1747    1.4334   16.5265 C.ar    1  LIG1       -0.0524
     13 C          13.3895    1.3332   17.1707 C.ar    1  LIG1       -0.0089
     14 C          13.6357    2.2373   18.3301 C.3     1  LIG1        0.0391
     15 N          14.5859    1.7780   19.2821 N.pl3   1  LIG1       -0.3222
     16 C          15.9509    1.9945   18.9262 C.3     1  LIG1        0.0515
     17 C          15.6672   -0.8310   18.2639 C.3     1  LIG1        0.0405
     18 C          14.7748   -0.6696   19.4585 C.ar    1  LIG1       -0.0089
     19 C          14.2735    0.5361   19.8790 C.ar    1  LIG1        0.0348
     20 C          13.4037    0.5535   20.9375 C.ar    1  LIG1       -0.0401
     21 C          13.0947   -0.5889   21.6071 C.ar    1  LIG1       -0.0571
     22 C          13.6325   -1.7886   21.2498 C.ar    1  LIG1       -0.0500
     23 C          14.4563   -1.8082   20.1684 C.ar    1  LIG1       -0.0524
     24 C          13.3622   -3.0222   22.0208 C.3     1  LIG1       -0.0397
     25 O          15.9100    3.5214   16.6054 O.2     1  LIG1       -0.2948
     26 C          16.1799    2.3858   16.4174 C.2     1  LIG1        0.1662
     27 C          16.4549    1.8429   15.0700 C.3     1  LIG1       -0.0032
     28 H          16.5162    1.5880   19.6231 H       1  LIG1        0.0495
     29 H          16.1410    2.9529   18.8932 H       1  LIG1        0.0495
     30 H          13.0150    1.3882   21.1900 H       1  LIG1        0.0636
     31 H          13.9407    3.1052   17.9914 H       1  LIG1        0.0514
     32 H          12.7934    2.3391   18.7805 H       1  LIG1        0.0514
     33 H          14.5557   -1.0949   15.4099 H       1  LIG1        0.0636
     34 H          12.5195   -0.8951   14.3784 H       1  LIG1        0.0621
     35 H          11.5616    2.1038   16.8105 H       1  LIG1        0.0624
     36 H          12.5272   -0.5452   22.3511 H       1  LIG1        0.0621
     37 H          16.5707   -0.8755   18.5888 H       1  LIG1        0.0514
     38 H          15.4024   -1.7094   17.8307 H       1  LIG1        0.0514
     39 H          14.8131   -2.6460   19.8936 H       1  LIG1        0.0624
     40 H          17.1576    1.2072   15.1055 H       1  LIG1        0.0307
     41 H          16.6653    2.5510   14.5193 H       1  LIG1        0.0307
     42 H          15.6468    1.4040   14.7730 H       1  LIG1        0.0307
     43 H          13.8034   -3.7891   21.6353 H       1  LIG1        0.0278
     44 H          13.7108   -2.9612   22.8950 H       1  LIG1        0.0278
     45 H          12.4227   -3.2349   22.0552 H       1  LIG1        0.0278
     46 H          10.3471    1.6770   14.5334 H       1  LIG1        0.0278
     47 H           9.7875    0.5022   15.3930 H       1  LIG1        0.0278
     48 H          10.4616    0.2013   14.0403 H       1  LIG1        0.0278
     49 H          20.2946    2.8156   18.2845 H       1  LIG1        0.0661
     50 H          20.1227    1.3188   18.7354 H       1  LIG1        0.0661
     51 H          20.1852    1.6468   17.2530 H       1  LIG1        0.0661
@<TRIPOS>BOND
     1    48    11    1
     2    34     9    1
     3    41    27    1
     4    46    11    1
     5    42    27    1
     6    11    47    1
     7    11    10    1
     8    27    40    1
     9    27    26    1
    10     9    10   ar
    11     9     8   ar
    12    33     8    1
    13    10    12   ar
    14     8     7   ar
    15    26    25    2
    16    26     5    1
    17    12    35    1
    18    12    13   ar
    19     7    13   ar
    20     7     6    1
    21    13    14    1
    22     4     3    2
    23    51     2    1
    24     6     5    1
    25     6    17    1
    26     5     3    1
    27     5    16    1
    28     3     1    1
    29    38    17    1
    30    31    14    1
    31     1     2    1
    32     2    49    1
    33     2    50    1
    34    17    37    1
    35    17    18    1
    36    14    32    1
    37    14    15    1
    38    29    16    1
    39    16    15    1
    40    16    28    1
    41    15    19    1
    42    18    19   ar
    43    18    23   ar
    44    19    20   ar
    45    39    23    1
    46    23    22   ar
    47    20    30    1
    48    20    21   ar
    49    22    21   ar
    50    22    24    1
    51    21    36    1
    52    43    24    1
    53    24    45    1
    54    24    44    1
