@<TRIPOS>MOLECULE
?
 53 56 0 0 0
SMALL
GASTEIGER

@<TRIPOS>ATOM
      1 O           2.6974    8.0626    4.4468 O.2     1  LIG1       -0.2713
      2 O           3.1711   10.8396    5.3010 O.3     1  LIG1       -0.3741
      3 O          -1.2932    7.9703    3.2934 O.2     1  LIG1       -0.2751
      4 N           0.6723    8.9985    3.7572 N.am    1  LIG1       -0.2076
      5 C           2.0285    9.0235    4.1319 C.2     1  LIG1        0.2631
      6 C           0.1601   10.3378    3.7960 C.ar    1  LIG1        0.0503
      7 C          -1.1599   10.7750    3.6986 C.ar    1  LIG1       -0.0395
      8 C          -1.3955   12.1436    3.8591 C.ar    1  LIG1       -0.0600
      9 C          -0.3617   13.0387    4.1193 C.ar    1  LIG1       -0.0613
     10 C           0.9554   12.5839    4.1984 C.ar    1  LIG1       -0.0536
     11 C           1.2128   11.2330    4.0157 C.ar    1  LIG1        0.0152
     12 C           2.5180   10.4841    4.0961 C.3     1  LIG1        0.1754
     13 C           3.5323   10.5973    2.9002 C.3     1  LIG1        0.0221
     14 C           3.9906   12.0496    2.6077 C.3     1  LIG1       -0.0431
     15 C           3.1090   12.8444    1.6369 C.3     1  LIG1       -0.0521
     16 C           2.7477   12.0466    0.3877 C.3     1  LIG1       -0.0493
     17 C           2.1318   10.6980    0.7880 C.3     1  LIG1       -0.0311
     18 C           3.1348    9.9085    1.6020 C.2     1  LIG1       -0.0637
     19 C           3.7755    8.8072    1.1361 C.2     1  LIG1       -0.0699
     20 C           3.5188    8.1882   -0.2214 C.3     1  LIG1       -0.0315
     21 C           3.1472    6.7022   -0.1023 C.3     1  LIG1       -0.0493
     22 C           4.2346    5.9217    0.6362 C.3     1  LIG1       -0.0525
     23 C           4.5468    6.5581    1.9877 C.3     1  LIG1       -0.0493
     24 C           4.8671    8.0555    1.8660 C.3     1  LIG1       -0.0315
     25 C          -0.0984    7.8570    3.4313 C.2     1  LIG1        0.2232
     26 C           0.6201    6.5572    3.2252 C.3     1  LIG1        0.0131
     27 H           3.8778   10.2726    5.3918 H       1  LIG1        0.2113
     28 H          -1.8685   10.2016    3.5683 H       1  LIG1        0.0636
     29 H          -2.3228   12.4635    3.8318 H       1  LIG1        0.0618
     30 H          -0.5564   14.0255    4.2717 H       1  LIG1        0.0618
     31 H           1.6828   13.2197    4.3546 H       1  LIG1        0.0622
     32 H           4.3242   10.1003    3.2932 H       1  LIG1        0.0382
     33 H           4.0792   12.5285    3.4623 H       1  LIG1        0.0272
     34 H           4.9116   11.9721    2.2088 H       1  LIG1        0.0272
     35 H           3.5669   13.7106    1.3973 H       1  LIG1        0.0266
     36 H           2.2470   13.1138    2.0555 H       1  LIG1        0.0266
     37 H           2.0897   12.5449   -0.1858 H       1  LIG1        0.0268
     38 H           3.5421   11.8826   -0.1617 H       1  LIG1        0.0268
     39 H           1.8381   10.2031   -0.0220 H       1  LIG1        0.0310
     40 H           1.3033   10.8797    1.3385 H       1  LIG1        0.0310
     41 H           2.8173    8.6806   -0.7622 H       1  LIG1        0.0310
     42 H           4.3604    8.2484   -0.7548 H       1  LIG1        0.0310
     43 H           2.9799    6.3359   -1.0194 H       1  LIG1        0.0268
     44 H           2.2669    6.6203    0.3916 H       1  LIG1        0.0268
     45 H           3.9237    4.9721    0.7485 H       1  LIG1        0.0265
     46 H           5.0549    5.8865    0.0661 H       1  LIG1        0.0265
     47 H           3.7741    6.4479    2.5804 H       1  LIG1        0.0268
     48 H           5.3180    6.1156    2.4377 H       1  LIG1        0.0268
     49 H           5.0256    8.4034    2.7284 H       1  LIG1        0.0310
     50 H           5.6926    8.1576    1.3312 H       1  LIG1        0.0310
     51 H           1.3621    6.6487    2.6592 H       1  LIG1        0.0323
     52 H          -0.0220    5.9655    2.8523 H       1  LIG1        0.0323
     53 H           0.9724    6.2166    4.0701 H       1  LIG1        0.0323
@<TRIPOS>BOND
     1    43    21    1
     2    41    20    1
     3    42    20    1
     4    20    21    1
     5    20    19    1
     6    37    16    1
     7    38    16    1
     8    21    44    1
     9    21    22    1
    10    39    17    1
    11    46    22    1
    12    16    17    1
    13    16    15    1
    14    22    45    1
    15    22    23    1
    16    17    40    1
    17    17    18    1
    18    19    18    2
    19    19    24    1
    20    50    24    1
    21    35    15    1
    22    18    13    1
    23    15    36    1
    24    15    14    1
    25    24    23    1
    26    24    49    1
    27    23    48    1
    28    23    47    1
    29    34    14    1
    30    14    13    1
    31    14    33    1
    32    51    26    1
    33    52    26    1
    34    13    32    1
    35    13    12    1
    36    26    25    1
    37    26    53    1
    38     3    25    2
    39    25     4   am
    40    28     7    1
    41     7     6   ar
    42     7     8   ar
    43     4     6    1
    44     4     5   am
    45     6    11   ar
    46    29     8    1
    47     8     9   ar
    48    11    12    1
    49    11    10   ar
    50    12     5    1
    51    12     2    1
    52     9    10   ar
    53     9    30    1
    54     5     1    2
    55    10    31    1
    56     2    27    1
