@<TRIPOS>MOLECULE
?
 65 68 0 0 0
SMALL
GASTEIGER

@<TRIPOS>ATOM
      1 O           8.3183   11.1917    6.3334 O.3     1  LIG1       -0.4437
      2 O          10.1617   12.2455    7.0429 O.2     1  LIG1       -0.2490
      3 O           7.4292   14.3679    6.1505 O.3     1  LIG1       -0.4763
      4 O          13.5958   16.9893    9.2706 O.3     1  LIG1       -0.4763
      5 O          11.6526   19.3026    7.1479 O.2     1  LIG1       -0.2491
      6 O          13.4425   19.9673    8.3333 O.3     1  LIG1       -0.4668
      7 N           9.3213   14.0574    4.7407 N.3     1  LIG1       -0.2527
      8 N          13.7498   17.0019    6.8863 N.3     1  LIG1       -0.2527
      9 C           8.3319   10.5317    7.7643 C.3     1  LIG1        0.2556
     10 C           9.3483   12.0068    6.2208 C.2     1  LIG1        0.3258
     11 C           9.4455   12.6002    4.7636 C.3     1  LIG1        0.1134
     12 C          10.7040   12.1057    4.0498 C.3     1  LIG1       -0.0206
     13 C          10.8933   10.6085    4.2471 C.3     1  LIG1       -0.0607
     14 H          10.2487   10.1310    3.7204 H       1  LIG1        0.0233
     15 H          10.7756   10.3885    5.1742 H       1  LIG1        0.0233
     16 H          11.7783   10.3595    3.9702 H       1  LIG1        0.0233
     17 C          10.6631   12.4587    2.5892 C.3     1  LIG1       -0.0607
     18 H           9.9093   12.0307    2.1769 H       1  LIG1        0.0233
     19 H          11.4713   12.1603    2.1659 H       1  LIG1        0.0233
     20 H          10.5846   13.4102    2.4927 H       1  LIG1        0.0233
     21 C          10.1968   14.8345    5.6298 C.3     1  LIG1        0.0319
     22 C           9.5580   15.1871    6.9693 C.ar    1  LIG1        0.0165
     23 C           8.2245   14.8705    7.1547 C.ar    1  LIG1        0.1274
     24 C           7.9964   14.5579    4.8313 C.3     1  LIG1        0.1444
     25 C           7.5659   14.9859    8.4002 C.ar    1  LIG1       -0.0190
     26 C           8.2509   15.4412    9.4637 C.ar    1  LIG1       -0.0505
     27 C           9.6128   15.8351    9.3350 C.ar    1  LIG1       -0.0168
     28 C          10.2877   15.7347    8.0869 C.ar    1  LIG1       -0.0021
     29 C          11.6666   16.1799    8.0319 C.ar    1  LIG1        0.0165
     30 C          12.2762   16.5907    9.2046 C.ar    1  LIG1        0.1274
     31 C          11.5904   16.6758   10.4306 C.ar    1  LIG1       -0.0190
     32 C          10.2891   16.3246   10.4890 C.ar    1  LIG1       -0.0505
     33 C          12.4411   16.3351    6.7212 C.3     1  LIG1        0.0319
     34 C          14.3596   16.6046    8.1098 C.3     1  LIG1        0.1444
     35 C          13.8337   18.4347    6.5654 C.3     1  LIG1        0.1134
     36 C          13.6638   18.6886    5.0557 C.3     1  LIG1       -0.0206
     37 C          14.6334   17.8356    4.2556 C.3     1  LIG1       -0.0607
     38 C          13.8604   20.1582    4.7475 C.3     1  LIG1       -0.0607
     39 C          12.8265   19.2791    7.3638 C.2     1  LIG1        0.3246
     40 C          12.5646   20.6747    9.2435 C.3     1  LIG1        0.0817
     41 H           8.8162   12.2950    4.3182 H       1  LIG1        0.0582
     42 H          11.4424   12.5678    4.3436 H       1  LIG1        0.0316
     43 H          10.4533   15.6527    5.2665 H       1  LIG1        0.0478
     44 H          10.9308   14.3584    5.7576 H       1  LIG1        0.0478
     45 H           7.3497   14.1128    4.2166 H       1  LIG1        0.0873
     46 H           8.0472   15.6237    4.6654 H       1  LIG1        0.0873
     47 H           6.7017   14.8188    8.4248 H       1  LIG1        0.0654
     48 H           7.8783   15.5009   10.3129 H       1  LIG1        0.0625
     49 H          12.0204   16.9640   11.2104 H       1  LIG1        0.0654
     50 H           9.8599   16.3484   11.2697 H       1  LIG1        0.0625
     51 H          12.6395   15.5026    6.3165 H       1  LIG1        0.0478
     52 H          11.9028   16.8344    6.1132 H       1  LIG1        0.0478
     53 H          15.1735   17.0015    8.1369 H       1  LIG1        0.0873
     54 H          14.4232   15.6459    8.0945 H       1  LIG1        0.0873
     55 H          14.7182   18.7068    6.7906 H       1  LIG1        0.0582
     56 H          12.7878   18.4493    4.8855 H       1  LIG1        0.0316
     57 H          14.5323   16.9350    4.4114 H       1  LIG1        0.0233
     58 H          14.4965   18.1134    3.2514 H       1  LIG1        0.0233
     59 H          15.5009   17.9821    4.4960 H       1  LIG1        0.0233
     60 H          14.7676   20.4803    5.0041 H       1  LIG1        0.0233
     61 H          13.2841   20.6508    5.1988 H       1  LIG1        0.0233
     62 H          13.7240   20.4428    3.8356 H       1  LIG1        0.0233
     63 H          11.9301   21.2784    8.7550 H       1  LIG1        0.0661
     64 H          13.1476   21.2647    9.7795 H       1  LIG1        0.0661
     65 H          11.9267   20.2057    9.7287 H       1  LIG1        0.0661
@<TRIPOS>BOND
     1    19    17    1
     2    18    17    1
     3    20    17    1
     4    17    12    1
     5    58    37    1
     6    14    13    1
     7    62    38    1
     8    16    13    1
     9    12    13    1
    10    12    42    1
    11    12    11    1
    12    45    24    1
    13    13    15    1
    14    37    57    1
    15    37    59    1
    16    37    36    1
    17    41    11    1
    18    46    24    1
    19     7    11    1
    20     7    24    1
    21     7    21    1
    22    38    60    1
    23    38    36    1
    24    38    61    1
    25    11    10    1
    26    24     3    1
    27    56    36    1
    28    36    35    1
    29    43    21    1
    30    21    44    1
    31    21    22    1
    32    52    33    1
    33     3    23    1
    34    10     1    1
    35    10     2    2
    36    51    33    1
    37     1     9    1
    38    35    55    1
    39    35     8    1
    40    35    39    1
    41    33     8    1
    42    33    29    1
    43     8    34    1
    44    22    23   ar
    45    22    28   ar
    46     5    39    2
    47    23    25   ar
    48    39     6    1
    49    29    28   ar
    50    29    30   ar
    51    28    27   ar
    52    54    34    1
    53    34    53    1
    54    34     4    1
    55     6    40    1
    56    25    47    1
    57    25    26   ar
    58    63    40    1
    59    30     4    1
    60    30    31   ar
    61    40    65    1
    62    40    64    1
    63    27    26   ar
    64    27    32   ar
    65    26    48    1
    66    31    32   ar
    67    31    49    1
    68    32    50    1
