@<TRIPOS>MOLECULE
(S)-cyclo[N-cyclohexyloxy-2-[(\b-pyridyl) methylene]glycyl-prolyl
 48 51 0 0 0
SMALL
GASTEIGER

@<TRIPOS>ATOM
      1 O           0.3112    5.0035    5.5286 O.2     1  LIG1       -0.2685
      2 O           4.8318    4.7806    2.7603 O.2     1  LIG1       -0.2711
      3 O           3.7296    7.1712    3.2483 O.3     1  LIG1       -0.2689
      4 N           2.0590    3.7786    4.8305 N.am    1  LIG1       -0.2848
      5 N           3.2367    5.9957    3.8261 N.am    1  LIG1       -0.1415
      6 N          -0.1254    9.5685    7.3847 N.ar    1  LIG1       -0.2627
      7 C           2.3094    6.1599    4.9005 C.2     1  LIG1        0.1267
      8 C           1.4691    4.9341    5.1306 C.2     1  LIG1        0.2639
      9 C           1.3349    2.4980    4.8280 C.3     1  LIG1        0.0159
     10 H           0.5397    2.5505    4.2747 H       1  LIG1        0.0465
     11 H           1.0774    2.2435    5.7284 H       1  LIG1        0.0465
     12 C           2.3339    1.5142    4.2499 C.3     1  LIG1       -0.0350
     13 H           1.8903    0.8581    3.6909 H       1  LIG1        0.0281
     14 H           2.8138    1.0528    4.9551 H       1  LIG1        0.0281
     15 C           3.2791    2.3805    3.4269 C.3     1  LIG1       -0.0242
     16 H           4.1380    1.9469    3.3051 H       1  LIG1        0.0288
     17 H           2.9000    2.5855    2.5576 H       1  LIG1        0.0288
     18 C           3.4113    3.6342    4.2787 C.3     1  LIG1        0.1051
     19 H           4.0313    3.4477    5.0153 H       1  LIG1        0.0598
     20 C           3.9020    4.8435    3.5350 C.2     1  LIG1        0.2635
     21 C           2.8089    7.6556    2.2132 C.3     1  LIG1        0.0849
     22 H           1.9010    7.6896    2.5817 H       1  LIG1        0.0620
     23 C           2.8119    6.7801    0.9888 C.3     1  LIG1       -0.0243
     24 H           2.5073    5.8890    1.2211 H       1  LIG1        0.0291
     25 H           3.7129    6.7110    0.6373 H       1  LIG1        0.0291
     26 C           1.8952    7.3785   -0.0634 C.3     1  LIG1       -0.0506
     27 H           0.9784    7.3456    0.2532 H       1  LIG1        0.0266
     28 H           1.9500    6.8491   -0.8749 H       1  LIG1        0.0266
     29 C           2.2673    8.8238   -0.3796 C.3     1  LIG1       -0.0529
     30 H           3.1282    8.8423   -0.8250 H       1  LIG1        0.0265
     31 H           1.6092    9.1977   -0.9869 H       1  LIG1        0.0265
     32 C           2.3330    9.6725    0.8677 C.3     1  LIG1       -0.0506
     33 H           1.4446    9.7570    1.2469 H       1  LIG1        0.0266
     34 H           2.6464   10.5615    0.6355 H       1  LIG1        0.0266
     35 C           3.2693    9.0596    1.9016 C.3     1  LIG1       -0.0243
     36 H           4.1752    9.0401    1.5552 H       1  LIG1        0.0291
     37 H           3.2634    9.5953    2.7109 H       1  LIG1        0.0291
     38 C           2.1586    7.3445    5.4993 C.2     1  LIG1       -0.0243
     39 H           2.7306    8.0141    5.1979 H       1  LIG1        0.0645
     40 C           1.2292    7.7514    6.5594 C.ar    1  LIG1       -0.0049
     41 C           0.8198    6.9686    7.6337 C.ar    1  LIG1       -0.0517
     42 H           1.1332    6.0971    7.7262 H       1  LIG1        0.0624
     43 C          -0.0519    7.4960    8.5572 C.ar    1  LIG1       -0.0430
     44 H          -0.3369    6.9912    9.2849 H       1  LIG1        0.0633
     45 C          -0.4936    8.7856    8.3833 C.ar    1  LIG1        0.0276
     46 H          -1.0901    9.1297    9.0094 H       1  LIG1        0.0829
     47 C           0.7277    9.0462    6.5146 C.ar    1  LIG1        0.0347
     48 H           1.0137    9.5912    5.8179 H       1  LIG1        0.0835
@<TRIPOS>BOND
     1    31    29    1
     2    28    26    1
     3    30    29    1
     4    29    26    1
     5    29    32    1
     6    26    27    1
     7    26    23    1
     8    34    32    1
     9    25    23    1
    10    32    33    1
    11    32    35    1
    12    23    24    1
    13    23    21    1
    14    36    35    1
    15    35    21    1
    16    35    37    1
    17    21    22    1
    18    21     3    1
    19    17    15    1
    20     2    20    2
    21     3     5    1
    22    16    15    1
    23    15    12    1
    24    15    18    1
    25    20     5   am
    26    20    18    1
    27    13    12    1
    28     5     7    1
    29    12     9    1
    30    12    14    1
    31    10     9    1
    32    18     4    1
    33    18    19    1
    34     9     4    1
    35     9    11    1
    36     4     8   am
    37     7     8    1
    38     7    38    2
    39     8     1    2
    40    39    38    1
    41    38    40    1
    42    48    47    1
    43    47    40   ar
    44    47     6   ar
    45    40    41   ar
    46     6    45   ar
    47    41    42    1
    48    41    43   ar
    49    45    43   ar
    50    45    46    1
    51    43    44    1
