@<TRIPOS>MOLECULE
?
 47 49 0 0 0
SMALL
GASTEIGER

@<TRIPOS>ATOM
      1 O           5.3037    4.3528    5.0748 O.3     1  LIG1       -0.4948
      2 O          10.7988   -0.2615    0.7314 O.2     1  LIG1       -0.2965
      3 O          12.3247    2.1491    2.3974 O.2     1  LIG1       -0.2500
      4 O          10.5389    2.7506    1.1931 O.3     1  LIG1       -0.4644
      5 C           5.2743    3.0183    4.7398 C.ar    1  LIG1        0.1235
      6 C           4.1249    2.2506    4.7411 C.ar    1  LIG1       -0.0197
      7 H           3.3096    2.6221    4.9891 H       1  LIG1        0.0654
      8 C           4.2067    0.9276    4.3690 C.ar    1  LIG1       -0.0580
      9 H           3.4384    0.4031    4.3600 H       1  LIG1        0.0619
     10 C           5.4124    0.3746    4.0110 C.ar    1  LIG1       -0.0576
     11 H           5.4491   -0.5230    3.7719 H       1  LIG1        0.0621
     12 C           6.5797    1.1322    3.9995 C.ar    1  LIG1       -0.0345
     13 C           6.5185    2.4737    4.3805 C.ar    1  LIG1       -0.0020
     14 C           7.7202    3.3859    4.3882 C.3     1  LIG1       -0.0236
     15 H           7.7554    3.8490    5.2397 H       1  LIG1        0.0314
     16 H           7.6088    4.0551    3.6939 H       1  LIG1        0.0314
     17 C           9.0442    2.6683    4.1657 C.3     1  LIG1       -0.0441
     18 H           9.7106    3.3029    3.8575 H       1  LIG1        0.0272
     19 H           9.3539    2.2906    5.0045 H       1  LIG1        0.0272
     20 C           8.8857    1.5576    3.1364 C.3     1  LIG1       -0.0116
     21 H           8.4754    1.9606    2.3437 H       1  LIG1        0.0321
     22 C           7.9169    0.4723    3.6402 C.3     1  LIG1       -0.0023
     23 C           8.4279   -0.2477    4.9073 C.3     1  LIG1       -0.0552
     24 H           8.4994    0.3838    5.6271 H       1  LIG1        0.0238
     25 H           9.2897   -0.6307    4.7321 H       1  LIG1        0.0238
     26 H           7.8126   -0.9422    5.1502 H       1  LIG1        0.0238
     27 C           7.7303   -0.5469    2.5099 C.3     1  LIG1       -0.0366
     28 H           7.1335   -1.2499    2.8116 H       1  LIG1        0.0278
     29 H           7.3115   -0.1077    1.7530 H       1  LIG1        0.0278
     30 C           9.0488   -1.1730    2.0534 C.3     1  LIG1        0.0075
     31 H           9.3844   -1.7483    2.7592 H       1  LIG1        0.0342
     32 H           8.8818   -1.7276    1.2760 H       1  LIG1        0.0342
     33 C          10.0910   -0.1677    1.7146 C.2     1  LIG1        0.1474
     34 C          10.2460    0.9822    2.6940 C.3     1  LIG1        0.1180
     35 H          10.6844    0.6246    3.4944 H       1  LIG1        0.0495
     36 C          11.1687    2.0160    2.1071 C.2     1  LIG1        0.3177
     37 C          11.2918    3.7651    0.4910 C.3     1  LIG1        0.0897
     38 H          12.1941    3.4544    0.3171 H       1  LIG1        0.0694
     39 H          11.3411    4.5751    1.0229 H       1  LIG1        0.0694
     40 C          10.5827    4.0267   -0.7799 C.3     1  LIG1       -0.0306
     41 H           9.6520    4.1828   -0.6022 H       1  LIG1        0.0262
     42 H          10.6746    3.2667   -1.3604 H       1  LIG1        0.0262
     43 H          10.9622    4.7997   -1.2044 H       1  LIG1        0.0262
     44 C           4.1136    4.9258    5.6118 C.3     1  LIG1        0.0788
     45 H           3.8625    4.4520    6.4084 H       1  LIG1        0.0660
     46 H           3.4075    4.8620    4.9648 H       1  LIG1        0.0660
     47 H           4.2713    5.8481    5.8240 H       1  LIG1        0.0660
@<TRIPOS>BOND
     1    42    40    1
     2    43    40    1
     3    40    41    1
     4    40    37    1
     5    38    37    1
     6    37    39    1
     7    37     4    1
     8     2    33    2
     9     4    36    1
    10    32    30    1
    11    33    30    1
    12    33    34    1
    13    29    27    1
    14    30    27    1
    15    30    31    1
    16    36     3    2
    17    36    34    1
    18    21    20    1
    19    27    28    1
    20    27    22    1
    21    34    20    1
    22    34    35    1
    23    20    22    1
    24    20    17    1
    25    22    12    1
    26    22    23    1
    27    16    14    1
    28    11    10    1
    29    18    17    1
    30    12    10   ar
    31    12    13   ar
    32    10     8   ar
    33    17    14    1
    34    17    19    1
    35     9     8    1
    36     8     6   ar
    37    13    14    1
    38    13     5   ar
    39    14    15    1
    40    25    23    1
    41     5     6   ar
    42     5     1    1
    43     6     7    1
    44    23    26    1
    45    23    24    1
    46    46    44    1
    47     1    44    1
    48    44    47    1
    49    44    45    1
