@<TRIPOS>MOLECULE
?
 52 57 0 0 0
SMALL
GASTEIGER

@<TRIPOS>ATOM
      1 C          10.2842   12.1442    2.0712 C.2     1  LIG1        0.1966
      2 O          11.1463   11.3405    2.4619 O.2     1  LIG1       -0.2865
      3 C          10.6833   13.5956    1.9975 C.ar    1  LIG1        0.0224
      4 C          11.8177   13.9353    1.2790 C.ar    1  LIG1       -0.0509
      5 H          12.3220   13.2615    0.8387 H       1  LIG1        0.0625
      6 C          12.2128   15.2544    1.2053 C.ar    1  LIG1       -0.0611
      7 H          12.9804   15.4915    0.6992 H       1  LIG1        0.0618
      8 C          11.4985   16.2235    1.8611 C.ar    1  LIG1       -0.0617
      9 H          11.7749   17.1299    1.8084 H       1  LIG1        0.0618
     10 C          10.3789   15.8894    2.5967 C.ar    1  LIG1       -0.0611
     11 H           9.8983   16.5621    3.0657 H       1  LIG1        0.0618
     12 C           9.9614   14.5829    2.6471 C.ar    1  LIG1       -0.0509
     13 H           9.1752   14.3560    3.1293 H       1  LIG1        0.0625
     14 C           8.9557   11.7076    1.6611 C.ar    1  LIG1        0.0641
     15 C           8.6495   10.3121    1.6549 C.ar    1  LIG1        0.1349
     16 O           9.5355    9.3909    2.0720 O.3     1  LIG1       -0.5056
     17 H          10.2516    9.7706    2.2906 H       1  LIG1        0.2922
     18 C           7.4248    9.8663    1.1984 C.ar    1  LIG1        0.0442
     19 C           6.4677   10.7989    0.7930 C.ar    1  LIG1        0.1329
     20 C           6.7479   12.1579    0.7759 C.ar    1  LIG1       -0.0186
     21 H           6.0876   12.7815    0.4938 H       1  LIG1        0.0654
     22 C           7.9874   12.5912    1.1705 C.ar    1  LIG1       -0.0439
     23 H           8.1937   13.5169    1.1100 H       1  LIG1        0.0627
     24 C           7.0890    8.3922    1.0666 C.3     1  LIG1        0.0270
     25 H           7.9233    7.8700    0.8837 H       1  LIG1        0.0403
     26 C           6.1322    8.2520   -0.0953 C.3     1  LIG1        0.0407
     27 H           5.9002    7.2989   -0.2318 H       1  LIG1        0.0353
     28 H           6.5511    8.5940   -0.9240 H       1  LIG1        0.0353
     29 C           4.8868    9.0489    0.2248 C.3     1  LIG1        0.2810
     30 O           5.2212   10.4375    0.3969 O.3     1  LIG1       -0.4467
     31 O           4.2695    8.5906    1.4208 O.3     1  LIG1       -0.4468
     32 C           5.0208    7.9487    2.3921 C.ar    1  LIG1        0.1294
     33 C           6.4124    7.8529    2.2890 C.ar    1  LIG1        0.0023
     34 C           7.0958    7.2179    3.3292 C.ar    1  LIG1       -0.0545
     35 H           8.0430    7.1438    3.2905 H       1  LIG1        0.0622
     36 C           6.4199    6.6980    4.4051 C.ar    1  LIG1       -0.0613
     37 H           6.9019    6.2876    5.1144 H       1  LIG1        0.0618
     38 C           5.0400    6.7710    4.4586 C.ar    1  LIG1       -0.0583
     39 H           4.5692    6.3868    5.1888 H       1  LIG1        0.0619
     40 C           4.3538    7.4026    3.4494 C.ar    1  LIG1       -0.0195
     41 H           3.4066    7.4596    3.4881 H       1  LIG1        0.0654
     42 C           3.8251    8.9942   -0.8565 C.ar    1  LIG1        0.0360
     43 C           3.6779   10.0111   -1.7883 C.ar    1  LIG1       -0.0512
     44 H           4.2195   10.7910   -1.7371 H       1  LIG1        0.0623
     45 C           2.7389    9.8812   -2.7905 C.ar    1  LIG1       -0.0613
     46 H           2.6289   10.5823   -3.4223 H       1  LIG1        0.0618
     47 C           1.9639    8.7639   -2.8913 C.ar    1  LIG1       -0.0617
     48 H           1.3209    8.6920   -3.5858 H       1  LIG1        0.0618
     49 C           2.1187    7.7481   -1.9882 C.ar    1  LIG1       -0.0613
     50 H           1.5895    6.9614   -2.0665 H       1  LIG1        0.0618
     51 C           3.0348    7.8586   -0.9658 C.ar    1  LIG1       -0.0512
     52 H           3.1282    7.1552   -0.3341 H       1  LIG1        0.0623
@<TRIPOS>BOND
     1    48    47    1
     2    46    45    1
     3    47    45   ar
     4    47    49   ar
     5    45    43   ar
     6    50    49    1
     7    49    51   ar
     8    43    44    1
     9    43    42   ar
    10    51    42   ar
    11    51    52    1
    12    28    26    1
    13    42    29    1
    14    27    26    1
    15    26    29    1
    16    26    24    1
    17    29    30    1
    18    29    31    1
    19    30    19    1
    20    21    20    1
    21     7     6    1
    22    20    19   ar
    23    20    22   ar
    24    19    18   ar
    25     5     4    1
    26    25    24    1
    27    24    18    1
    28    24    33    1
    29    23    22    1
    30    22    14   ar
    31    18    15   ar
    32     6     4   ar
    33     6     8   ar
    34     4     3   ar
    35    31    32    1
    36    15    14   ar
    37    15    16    1
    38    14     1    1
    39     9     8    1
    40     8    10   ar
    41     3     1    1
    42     3    12   ar
    43     1     2    2
    44    16    17    1
    45    33    32   ar
    46    33    34   ar
    47    32    40   ar
    48    10    12   ar
    49    10    11    1
    50    12    13    1
    51    35    34    1
    52    34    36   ar
    53    40    41    1
    54    40    38   ar
    55    36    38   ar
    56    36    37    1
    57    38    39    1
