@<TRIPOS>MOLECULE
?
 153 161 0 0 0
SMALL
GASTEIGER

@<TRIPOS>ATOM
      1 S           3.4463    7.8907    6.6174 S.3     1  LIG1       -0.0534
      2 C           4.5749    7.3561    3.7066 C.ar    1  LIG1       -0.0243
      3 C           6.1374    7.5107    7.2804 C.3     1  LIG1        0.0376
      4 C           7.3243    6.7423    7.1553 C.3     1  LIG1       -0.0194
      5 H           7.0650    5.8171    7.0315 H       1  LIG1        0.0320
      6 H           7.7751    7.0242    6.3453 H       1  LIG1        0.0320
      7 N           3.7199    5.3352    7.3613 N.ar    1  LIG1       -0.2300
      8 C           5.1557    7.5334    6.1481 C.2     1  LIG1        0.0051
      9 C           5.4721    7.3674    4.8882 C.2     1  LIG1       -0.0439
     10 H           6.3756    7.2379    4.7112 H       1  LIG1        0.0632
     11 C           8.0963    7.5857    9.3138 C.2     1  LIG1       -0.0546
     12 C           3.6539    8.3426    3.4614 C.ar    1  LIG1       -0.0546
     13 H           3.5890    9.0723    4.0364 H       1  LIG1        0.0623
     14 C           4.6647    6.3104    2.8283 C.ar    1  LIG1       -0.0546
     15 H           5.2936    5.6421    2.9786 H       1  LIG1        0.0623
     16 C           2.9708    6.4354    7.4675 C.ar    1  LIG1        0.1927
     17 C           9.1358    7.6380   10.4284 C.3     1  LIG1       -0.0400
     18 H           9.8977    7.1106   10.1820 H       1  LIG1        0.0277
     19 H           8.7547    7.2924   11.2385 H       1  LIG1        0.0277
     20 H           9.4089    8.5495   10.5674 H       1  LIG1        0.0277
     21 C           8.2543    6.7900    8.2004 C.2     1  LIG1       -0.0799
     22 H           9.0146    6.2581    8.1410 H       1  LIG1        0.0575
     23 N           1.8083    6.5514    8.1436 N.ar    1  LIG1       -0.2300
     24 C           2.8111    8.2517    2.3480 C.ar    1  LIG1       -0.0612
     25 H           2.2090    8.9405    2.1800 H       1  LIG1        0.0618
     26 C           3.2286    4.2486    8.0058 C.ar    1  LIG1        0.0319
     27 H           3.7262    3.4644    7.9780 H       1  LIG1        0.0831
     28 C           6.9068    8.2995    9.4061 C.2     1  LIG1       -0.0622
     29 H           6.7453    8.8177   10.1630 H       1  LIG1        0.0617
     30 C           5.9704    8.2608    8.4115 C.2     1  LIG1       -0.0714
     31 H           5.1929    8.7632    8.5075 H       1  LIG1        0.0582
     32 C           2.8486    7.1992    1.5140 C.ar    1  LIG1       -0.0617
     33 H           2.2290    7.1242    0.8240 H       1  LIG1        0.0618
     34 C           3.8193    6.2217    1.6909 C.ar    1  LIG1       -0.0612
     35 H           3.9136    5.5284    1.0792 H       1  LIG1        0.0618
     36 C           2.0495    4.2327    8.6946 C.ar    1  LIG1       -0.0254
     37 H           1.7148    3.4689    9.1091 H       1  LIG1        0.0648
     38 C           1.4171    5.4148    8.7173 C.ar    1  LIG1        0.0319
     39 H           0.6157    5.4443    9.1862 H       1  LIG1        0.0831
     40 S          10.3401    2.2539    6.7073 S.3     2  LIG2       -0.0494
     41 C           8.3544    2.8597    8.4481 C.2     2  LIG2       -0.0402
     42 H           7.4502    2.9984    8.6150 H       2  LIG2        0.0635
     43 C           7.6555    2.6801    6.0445 C.ar    2  LIG2       -0.0112
     44 C           5.5591    3.3893    5.1093 C.ar    2  LIG2       -0.0582
     45 H           4.8026    3.9258    5.1839 H       2  LIG2        0.0620
     46 C           6.9054    1.8731    3.8696 C.ar    2  LIG2       -0.0582
     47 H           7.0749    1.3798    3.0987 H       2  LIG2        0.0620
     48 C          10.8232    3.7099    5.8448 C.ar    2  LIG2        0.1929
     49 C           9.2062    2.9120    9.6209 C.ar    2  LIG2       -0.0240
     50 C           4.7305    2.5733    2.8523 C.3     2  LIG2       -0.0397
     51 H           3.9760    3.1325    3.0570 H       2  LIG2        0.0278
     52 H           4.4339    1.6731    2.7145 H       2  LIG2        0.0278
     53 H           5.1601    2.8961    2.0561 H       2  LIG2        0.0278
     54 N          10.0947    4.8124    5.8966 N.ar    2  LIG2       -0.2300
     55 C           5.7057    2.6119    3.9972 C.ar    2  LIG2       -0.0504
     56 C           6.4779    3.4098    6.1165 C.ar    2  LIG2       -0.0533
     57 H           6.3100    3.9258    6.8722 H       2  LIG2        0.0624
     58 C           9.0955    3.9463   10.4904 C.ar    2  LIG2       -0.0546
     59 H           8.4300    4.5805   10.3488 H       2  LIG2        0.0623
     60 C          10.1996    1.9345    9.8951 C.ar    2  LIG2       -0.0546
     61 H          10.2936    1.2002    9.3315 H       2  LIG2        0.0623
     62 C           8.6617    2.6483    7.1680 C.2     2  LIG2        0.0233
     63 N          11.9907    3.5621    5.2180 N.ar    2  LIG2       -0.2300
     64 C          10.5658    5.9058    5.2875 C.ar    2  LIG2        0.0319
     65 H          10.0827    6.6991    5.3191 H       2  LIG2        0.0831
     66 C           7.8271    1.8913    4.9084 C.ar    2  LIG2       -0.0533
     67 H           8.5854    1.3571    4.8439 H       2  LIG2        0.0624
     68 C          10.8888    3.1620   11.8160 C.ar    2  LIG2       -0.0617
     69 H          11.4576    3.2643   12.5439 H       2  LIG2        0.0618
     70 C           9.9398    4.0940   11.5848 C.ar    2  LIG2       -0.0612
     71 H           9.8506    4.8260   12.1509 H       2  LIG2        0.0618
     72 C          11.0343    2.0663   11.0009 C.ar    2  LIG2       -0.0612
     73 H          11.6784    1.4230   11.1867 H       2  LIG2        0.0618
     74 C          11.7661    5.8558    4.6152 C.ar    2  LIG2       -0.0254
     75 H          12.1057    6.6127    4.1944 H       2  LIG2        0.0648
     76 C          12.4432    4.6737    4.5823 C.ar    2  LIG2        0.0319
     77 H          13.2423    4.6260    4.1097 H       2  LIG2        0.0831
     78 S           4.1172    1.8467   12.3790 S.3     3  LIG3       -0.0494
     79 C           6.2759    0.4410   11.6302 C.2     3  LIG3       -0.0402
     80 H           6.7147   -0.0887   11.0047 H       3  LIG3        0.0635
     81 C           3.5714    0.4683    7.2413 C.ar    3  LIG3       -0.0504
     82 C           4.5887    0.8229    9.8319 C.ar    3  LIG3       -0.0112
     83 N           5.1353    3.8281   10.8530 N.ar    3  LIG3       -0.2300
     84 C           5.4228    0.6433    8.7413 C.ar    3  LIG3       -0.0533
     85 H           6.3423    0.6410    8.8765 H       3  LIG3        0.0624
     86 C           5.1498    0.9502   11.2183 C.2     3  LIG3        0.0233
     87 C           6.3607    0.1546   14.0807 C.ar    3  LIG3       -0.0546
     88 H           5.5022   -0.2023   14.0655 H       3  LIG3        0.0623
     89 C           6.9667    0.5660   12.9256 C.ar    3  LIG3       -0.0240
     90 C           4.9383    0.4683    7.4662 C.ar    3  LIG3       -0.0582
     91 H           5.5270    0.3501    6.7572 H       3  LIG3        0.0620
     92 C           4.2338    3.5166   11.7794 C.ar    3  LIG3        0.1929
     93 C           3.2495    0.7729    9.5944 C.ar    3  LIG3       -0.0533
     94 H           2.6637    0.8524   10.3134 H       3  LIG3        0.0624
     95 C           8.1876    1.0980   12.9951 C.ar    3  LIG3       -0.0546
     96 H           8.6109    1.3594   12.2103 H       3  LIG3        0.0623
     97 C           2.7212    0.6092    8.3129 C.ar    3  LIG3       -0.0582
     98 H           1.8001    0.5956    8.1840 H       3  LIG3        0.0620
     99 C           3.0157    0.3228    5.8385 C.3     3  LIG3       -0.0397
    100 H           3.7392    0.2228    5.2167 H       3  LIG3        0.0278
    101 H           2.5068    1.1048    5.6136 H       3  LIG3        0.0278
    102 H           2.4482   -0.4501    5.7981 H       3  LIG3        0.0278
    103 C           7.0622    0.2796   15.2825 C.ar    3  LIG3       -0.0612
    104 H           6.6729   -0.0273   16.0685 H       3  LIG3        0.0618
    105 C           8.8439    1.2707   14.2007 C.ar    3  LIG3       -0.0612
    106 H           9.6732    1.6913   14.2171 H       3  LIG3        0.0618
    107 C           8.3060    0.8434   15.3318 C.ar    3  LIG3       -0.0617
    108 H           8.7617    0.9252   16.1380 H       3  LIG3        0.0618
    109 N           3.3770    4.3464   12.3948 N.ar    3  LIG3       -0.2300
    110 C           5.1738    5.1261   10.5182 C.ar    3  LIG3        0.0319
    111 H           5.7804    5.4034    9.8686 H       3  LIG3        0.0831
    112 C           3.4902    5.6012   12.0321 C.ar    3  LIG3        0.0319
    113 H           2.9372    6.2195   12.4517 H       3  LIG3        0.0831
    114 C           4.3479    6.0672   11.0995 C.ar    3  LIG3       -0.0254
    115 H           4.3785    6.9674   10.8644 H       3  LIG3        0.0648
    116 S           9.6162    8.3779    0.8845 S.3     4  LIG4       -0.0494
    117 C          10.2416    9.5724    6.1001 C.ar    4  LIG4       -0.0504
    118 C           8.3313    9.5429    4.5836 C.ar    4  LIG4       -0.0533
    119 H           7.4072    9.5815    4.4838 H       4  LIG4        0.0624
    120 C           6.8015    9.7498    0.4006 C.ar    4  LIG4       -0.0240
    121 N           8.6296    6.4036    2.4175 N.ar    4  LIG4       -0.2300
    122 C           8.6128    9.2565    2.0738 C.2     4  LIG4        0.0233
    123 C           9.5249    6.7128    1.4975 C.ar    4  LIG4        0.1929
    124 C           7.4380    9.7839    1.7048 C.2     4  LIG4       -0.0402
    125 H           6.9674   10.2294    2.3721 H       4  LIG4        0.0635
    126 C           9.1573    9.3951    3.4513 C.ar    4  LIG4       -0.0112
    127 C           5.4910    9.3406    0.3096 C.ar    4  LIG4       -0.0546
    128 H           5.0328    9.0928    1.0792 H       4  LIG4        0.0623
    129 N          10.3625    5.8853    0.8581 N.ar    4  LIG4       -0.2300
    130 C          10.5461    9.3178    3.6990 C.ar    4  LIG4       -0.0533
    131 H          11.1291    9.1951    2.9862 H       4  LIG4        0.0624
    132 C           8.5795    5.1033    2.7840 C.ar    4  LIG4        0.0319
    133 H           7.9960    4.8465    3.4601 H       4  LIG4        0.0831
    134 C           8.8959    9.6293    5.8486 C.ar    4  LIG4       -0.0582
    135 H           8.3218    9.7316    6.5740 H       4  LIG4        0.0620
    136 C           7.4351   10.1362   -0.7709 C.ar    4  LIG4       -0.0546
    137 H           8.3169   10.4294   -0.7304 H       4  LIG4        0.0623
    138 C           9.3647    4.1554    2.1850 C.ar    4  LIG4       -0.0254
    139 H           9.2929    3.2529    2.4036 H       4  LIG4        0.0648
    140 C          10.8462    9.5565    7.4334 C.3     4  LIG4       -0.0397
    141 H          10.1618    9.6679    8.0968 H       4  LIG4        0.0278
    142 H          11.4797   10.2749    7.5054 H       4  LIG4        0.0278
    143 H          11.2945    8.7200    7.5711 H       4  LIG4        0.0278
    144 C          11.0420    9.4179    4.9425 C.ar    4  LIG4       -0.0582
    145 H          11.9653    9.3838    5.0499 H       4  LIG4        0.0620
    146 C           6.7979   10.0976   -1.9992 C.ar    4  LIG4       -0.0612
    147 H           7.2425   10.3749   -2.7676 H       4  LIG4        0.0618
    148 C          10.2723    4.6055    1.2347 C.ar    4  LIG4        0.0319
    149 H          10.8458    3.9872    0.8429 H       4  LIG4        0.0831
    150 C           4.8497    9.2928   -0.9112 C.ar    4  LIG4       -0.0612
    151 H           3.9623    9.0201   -0.9516 H       4  LIG4        0.0618
    152 C           5.5079    9.6452   -2.0713 C.ar    4  LIG4       -0.0617
    153 H           5.0783    9.5770   -2.8927 H       4  LIG4        0.0618
@<TRIPOS>BOND
     1   153   152    1
     2   147   146    1
     3   152   146   ar
     4   152   150   ar
     5   146   136   ar
     6   151   150    1
     7   150   127   ar
     8   136   137    1
     9   136   120   ar
    10   127   120   ar
    11   127   128    1
    12   120   124    1
    13    33    32    1
    14   149   148    1
    15   129   148   ar
    16   129   123   ar
    17   116   123    1
    18   116   122    1
    19    35    34    1
    20   148   138   ar
    21   123   121   ar
    22    32    34   ar
    23    32    24   ar
    24    34    14   ar
    25   124   122    2
    26   124   125    1
    27    53    50    1
    28   122   126    1
    29    25    24    1
    30   138   139    1
    31   138   132   ar
    32    24    12   ar
    33   121   132   ar
    34    52    50    1
    35   132   133    1
    36    14    15    1
    37    14     2   ar
    38    50    51    1
    39    50    55    1
    40   131   130    1
    41    47    46    1
    42   126   130   ar
    43   126   118   ar
    44    12     2   ar
    45    12    13    1
    46   130   144   ar
    47     2     9    1
    48    46    55   ar
    49    46    66   ar
    50    55    44   ar
    51    77    76    1
    52    75    74    1
    53   119   118    1
    54    76    74   ar
    55    76    63   ar
    56   118   134   ar
    57    74    64   ar
    58    10     9    1
    59    67    66    1
    60     9     8    2
    61    66    43   ar
    62   144   145    1
    63   144   117   ar
    64    44    45    1
    65    44    56   ar
    66   100    99    1
    67    63    48   ar
    68    64    65    1
    69    64    54   ar
    70   101    99    1
    71   102    99    1
    72    99    81    1
    73    48    54   ar
    74    48    40    1
    75   134   117   ar
    76   134   135    1
    77    43    56   ar
    78    43    62    1
    79   117   140    1
    80    56    57    1
    81     8     1    1
    82     8     3    1
    83     6     4    1
    84     1    16    1
    85    40    62    1
    86    91    90    1
    87     5     4    1
    88     4     3    1
    89     4    21    1
    90    62    41    2
    91    81    90   ar
    92    81    97   ar
    93     3    30    1
    94     7    16   ar
    95     7    26   ar
    96   140   142    1
    97   140   143    1
    98   140   141    1
    99    90    84   ar
   100    16    23   ar
   101    27    26    1
   102    26    36   ar
   103    22    21    1
   104    23    38   ar
   105    98    97    1
   106    21    11    2
   107    97    93   ar
   108    30    31    1
   109    30    28    2
   110    41    42    1
   111    41    49    1
   112    36    38   ar
   113    36    37    1
   114    38    39    1
   115    84    85    1
   116    84    82   ar
   117    11    28    1
   118    11    17    1
   119    61    60    1
   120    28    29    1
   121    93    82   ar
   122    93    94    1
   123    49    60   ar
   124    49    58   ar
   125    82    86    1
   126   111   110    1
   127    60    72   ar
   128    18    17    1
   129    59    58    1
   130    17    20    1
   131    17    19    1
   132    58    70   ar
   133   110    83   ar
   134   110   114   ar
   135    83    92   ar
   136   115   114    1
   137    72    73    1
   138    72    68   ar
   139    80    79    1
   140   114   112   ar
   141    86    79    2
   142    86    78    1
   143    70    68   ar
   144    70    71    1
   145    79    89    1
   146    92    78    1
   147    92   109   ar
   148    68    69    1
   149   112   109   ar
   150   112   113    1
   151    96    95    1
   152    89    95   ar
   153    89    87   ar
   154    95   105   ar
   155    88    87    1
   156    87   103   ar
   157   105   106    1
   158   105   107   ar
   159   103   107   ar
   160   103   104    1
   161   107   108    1
