@<TRIPOS>MOLECULE
?
 45 50 0 0 0
SMALL
GASTEIGER

@<TRIPOS>ATOM
      1 O           4.1078    5.3569    3.7172 O.2     1  LIG1       -0.2756
      2 N           5.4664    3.5713    3.5484 N.am    1  LIG1       -0.2901
      3 C           5.1686    4.8561    3.3886 C.2     1  LIG1        0.2169
      4 C           6.3497    5.5333    2.7236 C.3     1  LIG1        0.0336
      5 H           6.1869    5.6624    1.7559 H       1  LIG1        0.0365
      6 H           6.5346    6.4126    3.1387 H       1  LIG1        0.0365
      7 C           7.4690    4.5955    2.9503 C.3     1  LIG1        0.0225
      8 H           7.7645    4.7483    3.8939 H       1  LIG1        0.0381
      9 C           8.7336    4.6977    2.0969 C.ar    1  LIG1       -0.0371
     10 C           9.2700    5.9589    1.9791 C.ar    1  LIG1       -0.0579
     11 H           8.7844    6.6979    2.3263 H       1  LIG1        0.0620
     12 C          10.5009    6.1891    1.3685 C.ar    1  LIG1       -0.0615
     13 H          10.8492    7.0696    1.2935 H       1  LIG1        0.0618
     14 C          11.2060    5.1088    0.8739 C.ar    1  LIG1       -0.0615
     15 H          12.0466    5.2446    0.4517 H       1  LIG1        0.0618
     16 C          10.6936    3.8363    0.9909 C.ar    1  LIG1       -0.0574
     17 H          11.1899    3.1030    0.6481 H       1  LIG1        0.0621
     18 C           9.4623    3.5983    1.6033 C.ar    1  LIG1       -0.0321
     19 C           8.9897    2.1551    1.7595 C.3     1  LIG1        0.0351
     20 H           9.6873    1.5397    1.3899 H       1  LIG1        0.0446
     21 C           8.7825    1.8508    3.2235 C.ar    1  LIG1       -0.0301
     22 C           7.6143    2.3359    3.8341 C.ar    1  LIG1       -0.0149
     23 C           6.7459    3.1895    2.9477 C.3     1  LIG1        0.0951
     24 C           6.5610    2.5392    1.5720 C.ar    1  LIG1       -0.0149
     25 C           7.7055    1.9642    0.9971 C.ar    1  LIG1       -0.0301
     26 C           7.6398    1.3331   -0.2303 C.ar    1  LIG1       -0.0573
     27 H           8.4128    0.9288   -0.6035 H       1  LIG1        0.0621
     28 C           6.4281    1.2949   -0.9123 C.ar    1  LIG1       -0.0615
     29 H           6.3602    0.8412   -1.7434 H       1  LIG1        0.0618
     30 C           5.3111    1.9350   -0.3606 C.ar    1  LIG1       -0.0614
     31 H           4.4956    1.9586   -0.8472 H       1  LIG1        0.0618
     32 C           5.3815    2.5347    0.8900 C.ar    1  LIG1       -0.0559
     33 H           4.6106    2.9401    1.2685 H       1  LIG1        0.0621
     34 C           9.7485    1.2050    4.0055 C.ar    1  LIG1       -0.0573
     35 H          10.5548    0.8996    3.6065 H       1  LIG1        0.0621
     36 C           9.5331    1.0085    5.3606 C.ar    1  LIG1       -0.0615
     37 H          10.1826    0.5548    5.8828 H       1  LIG1        0.0618
     38 C           8.3647    1.4768    5.9578 C.ar    1  LIG1       -0.0614
     39 H           8.2195    1.3420    6.8871 H       1  LIG1        0.0618
     40 C           7.4169    2.1394    5.1990 C.ar    1  LIG1       -0.0559
     41 H           6.6259    2.4628    5.6123 H       1  LIG1        0.0621
     42 C           4.4680    2.6032    3.9859 C.3     1  LIG1        0.0043
     43 H           4.2317    2.7795    4.9205 H       1  LIG1        0.0429
     44 H           4.8343    1.6981    3.9064 H       1  LIG1        0.0429
     45 H           3.6683    2.6830    3.4252 H       1  LIG1        0.0429
@<TRIPOS>BOND
     1    29    28    1
     2    28    30   ar
     3    28    26   ar
     4    31    30    1
     5    27    26    1
     6    30    32   ar
     7    26    25   ar
     8    15    14    1
     9    17    16    1
    10    14    16   ar
    11    14    12   ar
    12    32    33    1
    13    32    24   ar
    14    16    18   ar
    15    25    24   ar
    16    25    19    1
    17    13    12    1
    18    12    10   ar
    19    20    19    1
    20    24    23    1
    21    18    19    1
    22    18     9   ar
    23     5     4    1
    24    19    21    1
    25    10     9   ar
    26    10    11    1
    27     9     7    1
    28     4     7    1
    29     4     6    1
    30     4     3    1
    31    23     7    1
    32    23     2    1
    33    23    22    1
    34     7     8    1
    35    21    22   ar
    36    21    34   ar
    37     3     2   am
    38     3     1    2
    39    45    42    1
    40     2    42    1
    41    35    34    1
    42    22    40   ar
    43    44    42    1
    44    42    43    1
    45    34    36   ar
    46    40    41    1
    47    40    38   ar
    48    36    37    1
    49    36    38   ar
    50    38    39    1
