@<TRIPOS>MOLECULE
C23 H22 N2 O3
 50 53 0 0 0
SMALL
GASTEIGER

@<TRIPOS>ATOM
      1 O           7.6181    7.4819    2.9981 O.2     1  LIG1       -0.2738
      2 O           6.9179    3.9856    0.7504 O.2     1  LIG1       -0.2732
      3 O          13.1096    5.2437   -4.8787 O.3     1  LIG1       -0.4951
      4 N           6.3775    5.7824    1.9990 N.am    1  LIG1       -0.1718
      5 N           4.9872    5.4909    1.7569 N.3     1  LIG1       -0.2231
      6 C           4.2570    6.4981    2.5767 C.3     1  LIG1        0.0589
      7 C           5.2155    7.6766    2.6898 C.3     1  LIG1        0.0468
      8 C           6.5645    7.0356    2.5953 C.2     1  LIG1        0.2377
      9 C           7.3122    4.9053    1.4390 C.2     1  LIG1        0.2429
     10 C           8.7756    5.1506    1.7583 C.3     1  LIG1        0.0596
     11 C           9.6611    4.8665    0.5478 C.ar    1  LIG1       -0.0351
     12 C           9.7640    5.8262   -0.4294 C.ar    1  LIG1       -0.0501
     13 C          10.6145    5.6635   -1.5554 C.ar    1  LIG1       -0.0174
     14 C          10.7176    6.6516   -2.5695 C.ar    1  LIG1       -0.0506
     15 C          11.5552    6.4704   -3.6339 C.ar    1  LIG1       -0.0194
     16 C          12.3332    5.2912   -3.7471 C.ar    1  LIG1        0.1207
     17 C          12.2652    4.3179   -2.7888 C.ar    1  LIG1       -0.0122
     18 C          11.3880    4.4794   -1.6670 C.ar    1  LIG1       -0.0144
     19 C          11.2646    3.4956   -0.6613 C.ar    1  LIG1       -0.0536
     20 C          10.4191    3.6793    0.4103 C.ar    1  LIG1       -0.0573
     21 C          13.9060    4.0756   -5.0664 C.3     1  LIG1        0.0788
     22 C           9.1136    4.3419    3.0174 C.3     1  LIG1       -0.0500
     23 C           3.8602    5.9624    3.9424 C.ar    1  LIG1       -0.0284
     24 C           4.4010    4.8042    4.4869 C.ar    1  LIG1       -0.0570
     25 C           3.9959    4.3616    5.7373 C.ar    1  LIG1       -0.0615
     26 C           3.0546    5.0717    6.4557 C.ar    1  LIG1       -0.0617
     27 C           2.5206    6.2300    5.9319 C.ar    1  LIG1       -0.0615
     28 C           2.9347    6.6719    4.6830 C.ar    1  LIG1       -0.0570
     29 H           3.4357    6.7884    2.0862 H       1  LIG1        0.0531
     30 H           5.0753    8.3220    1.9522 H       1  LIG1        0.0378
     31 H           5.1031    8.1451    3.5548 H       1  LIG1        0.0378
     32 H           8.8766    6.1190    1.9854 H       1  LIG1        0.0441
     33 H           9.2517    6.6226   -0.3496 H       1  LIG1        0.0627
     34 H          10.1995    7.4455   -2.5072 H       1  LIG1        0.0625
     35 H          11.6176    7.1410   -4.3038 H       1  LIG1        0.0654
     36 H          12.7984    3.5357   -2.8671 H       1  LIG1        0.0660
     37 H          11.7727    2.6955   -0.7247 H       1  LIG1        0.0624
     38 H          10.3430    2.9976    1.0680 H       1  LIG1        0.0621
     39 H          13.3239    3.2885   -5.1178 H       1  LIG1        0.0660
     40 H          14.5239    3.9764   -4.3127 H       1  LIG1        0.0660
     41 H          14.4163    4.1582   -5.8987 H       1  LIG1        0.0660
     42 H           8.9664    3.3890    2.8428 H       1  LIG1        0.0240
     43 H           8.5386    4.6322    3.7564 H       1  LIG1        0.0240
     44 H          10.0527    4.4886    3.2575 H       1  LIG1        0.0240
     45 H           5.0511    4.3130    4.0001 H       1  LIG1        0.0621
     46 H           4.3681    3.5665    6.1016 H       1  LIG1        0.0618
     47 H           2.7749    4.7623    7.3099 H       1  LIG1        0.0618
     48 H           1.8734    6.7225    6.4231 H       1  LIG1        0.0618
     49 H           2.5743    7.4775    4.3306 H       1  LIG1        0.0621
     50 H           4.8651    5.7510    0.8217 H       1  LIG1        0.1456
@<TRIPOS>BOND
     1    41    21    1
     2    39    21    1
     3    21     3    1
     4    21    40    1
     5     3    16    1
     6    35    15    1
     7    16    15   ar
     8    16    17   ar
     9    15    14   ar
    10    36    17    1
    11    17    18   ar
    12    14    34    1
    13    14    13   ar
    14    18    13   ar
    15    18    19   ar
    16    13    12   ar
    17    37    19    1
    18    19    20   ar
    19    12    33    1
    20    12    11   ar
    21    20    11   ar
    22    20    38    1
    23    11    10    1
    24     2     9    2
    25    50     5    1
    26     9    10    1
    27     9     4   am
    28     5     4    1
    29     5     6    1
    30    10    32    1
    31    10    22    1
    32    30     7    1
    33     4     8   am
    34    29     6    1
    35     6     7    1
    36     6    23    1
    37     8     7    1
    38     8     1    2
    39     7    31    1
    40    42    22    1
    41    22    44    1
    42    22    43    1
    43    23    24   ar
    44    23    28   ar
    45    45    24    1
    46    49    28    1
    47    24    25   ar
    48    28    27   ar
    49    25    46    1
    50    25    26   ar
    51    27    48    1
    52    27    26   ar
    53    26    47    1
