@<TRIPOS>MOLECULE
?
 50 52 0 0 0
SMALL
GASTEIGER

@<TRIPOS>ATOM
      1 C           4.5932   11.5920   -2.5446 C.ar    1  LIG1        0.0209
      2 C           5.5691   11.6432   -3.5424 C.ar    1  LIG1       -0.0510
      3 H           6.4226   11.3005   -3.3932 H       1  LIG1        0.0625
      4 C           5.2437   12.2068   -4.7401 C.ar    1  LIG1       -0.0611
      5 H           5.8768   12.2627   -5.4182 H       1  LIG1        0.0618
      6 C           3.9534   12.6991   -4.9414 C.ar    1  LIG1       -0.0615
      7 H           3.7418   13.0795   -5.7632 H       1  LIG1        0.0618
      8 C           2.9828   12.6432   -3.9674 C.ar    1  LIG1       -0.0579
      9 H           2.1293   12.9746   -4.1242 H       1  LIG1        0.0620
     10 C           3.3151   12.0776   -2.7425 C.ar    1  LIG1       -0.0361
     11 C           2.4464   11.8735   -1.5322 C.3     1  LIG1       -0.0151
     12 H           1.7159   11.2684   -1.7314 H       1  LIG1        0.0321
     13 H           2.0792   12.7173   -1.2274 H       1  LIG1        0.0321
     14 C           3.3799   11.2686   -0.4689 C.3     1  LIG1        0.0489
     15 H           3.5286   11.9495    0.2210 H       1  LIG1        0.0406
     16 C           4.7123   11.0391   -1.2011 C.2     1  LIG1        0.1689
     17 C           2.8515    9.9909    0.2320 C.3     1  LIG1        0.0625
     18 C           2.8358    8.8234   -0.7582 C.3     1  LIG1       -0.0411
     19 H           3.7362    8.6083   -1.0140 H       1  LIG1        0.0251
     20 H           2.3320    9.0712   -1.5377 H       1  LIG1        0.0251
     21 H           2.4289    8.0586   -0.3451 H       1  LIG1        0.0251
     22 C           1.4863   10.2685    0.8665 C.ar    1  LIG1       -0.0260
     23 C           0.3731    9.4917    0.5839 C.ar    1  LIG1       -0.0541
     24 H           0.4368    8.8152   -0.0499 H       1  LIG1        0.0622
     25 C          -0.8280    9.7075    1.2289 C.ar    1  LIG1       -0.0261
     26 H          -1.5689    9.1761    1.0443 H       1  LIG1        0.0646
     27 C          -0.9031   10.7019    2.1323 C.ar    1  LIG1        0.1234
     28 C           0.1544   11.5209    2.4476 C.ar    1  LIG1       -0.0261
     29 H           0.0694   12.2040    3.0738 H       1  LIG1        0.0646
     30 C           1.3511   11.2849    1.7934 C.ar    1  LIG1       -0.0541
     31 H           2.0841   11.8250    1.9826 H       1  LIG1        0.0622
     32 C           4.6787    9.0478    3.7364 C.3     1  LIG1        0.0399
     33 C           6.0833    9.0922    3.1631 C.3     1  LIG1       -0.0484
     34 H           6.1521    9.8194    2.5411 H       1  LIG1        0.0244
     35 H           6.2708    8.2656    2.7136 H       1  LIG1        0.0244
     36 H           6.7149    9.2194    3.8759 H       1  LIG1        0.0244
     37 C           4.2077   10.3817    4.2758 C.3     1  LIG1       -0.0484
     38 H           4.6357   10.5551    5.1170 H       1  LIG1        0.0244
     39 H           3.2573   10.3579    4.3996 H       1  LIG1        0.0244
     40 H           4.4338   11.0753    3.6535 H       1  LIG1        0.0244
     41 C           4.5509    7.9523    4.7975 C.3     1  LIG1       -0.0484
     42 H           5.1371    8.1481    5.5317 H       1  LIG1        0.0244
     43 H           4.7931    7.1048    4.4132 H       1  LIG1        0.0244
     44 H           3.6457    7.9146    5.1124 H       1  LIG1        0.0244
     45 F          -2.0947   10.9221    2.7704 F       1  LIG1       -0.2055
     46 N           3.8208    9.7512    1.3420 N.3     1  LIG1       -0.2370
     47 H           4.5444    9.7173    1.0397 H       1  LIG1        0.1374
     48 O           5.6899   10.4759   -0.7321 O.2     1  LIG1       -0.2917
     49 O           3.9431    7.2269    1.9416 O.3     1  LIG1       -0.1455
     50 S           3.4827    8.5429    2.4267 S.3     1  LIG1        0.0321
@<TRIPOS>BOND
     1     7     6    1
     2     5     4    1
     3     6     4   ar
     4     6     8   ar
     5     4     2   ar
     6     9     8    1
     7     8    10   ar
     8     2     3    1
     9     2     1   ar
    10    10     1   ar
    11    10    11    1
    12     1    16    1
    13    12    11    1
    14    20    18    1
    15    11    13    1
    16    11    14    1
    17    16    48    2
    18    16    14    1
    19    19    18    1
    20    18    21    1
    21    18    17    1
    22    14    15    1
    23    14    17    1
    24    24    23    1
    25    17    22    1
    26    17    46    1
    27    23    22   ar
    28    23    25   ar
    29    22    30   ar
    30    47    46    1
    31    26    25    1
    32    25    27   ar
    33    46    50    1
    34    30    31    1
    35    30    28   ar
    36    49    50    1
    37    27    28   ar
    38    27    45    1
    39    50    32    1
    40    28    29    1
    41    34    33    1
    42    35    33    1
    43    33    32    1
    44    33    36    1
    45    40    37    1
    46    32    37    1
    47    32    41    1
    48    37    39    1
    49    37    38    1
    50    43    41    1
    51    41    44    1
    52    41    42    1
