@<TRIPOS>MOLECULE
?
 56 58 0 0 0
SMALL
GASTEIGER

@<TRIPOS>ATOM
      1 CL         -7.5933    5.9130   13.8502 Cl      1  LIG1       -0.0835
      2 CL          1.7431    5.3286    9.1909 Cl      1  LIG1       -0.0835
      3 O           2.7565    3.5345   12.4134 O.3     2  LIG2       -0.4951
      4 O          -5.6078    3.5885   17.2003 O.3     2  LIG2       -0.4951
      5 C          -4.3671    1.8371   16.0243 C.ar    2  LIG2       -0.0197
      6 H          -5.1510    1.5069   15.6019 H       2  LIG2        0.0654
      7 C           0.0006    2.9384   14.7126 C.ar    2  LIG2       -0.0539
      8 H          -0.7952    3.3862   14.9731 H       2  LIG2        0.0622
      9 C          -0.8681    6.6381   12.6425 C.ar    1  LIG1       -0.0344
     10 C          -3.1394    1.2180   15.8073 C.ar    2  LIG2       -0.0539
     11 H          -3.0937    0.4716   15.2213 H       2  LIG2        0.0622
     12 C           0.8390    3.5267   13.7823 C.ar    2  LIG2       -0.0197
     13 H           0.6178    4.3777   13.4221 H       2  LIG2        0.0654
     14 C           1.9875    2.8927   13.3730 C.ar    2  LIG2        0.1201
     15 C          -3.2793    3.4222   17.4521 C.ar    2  LIG2       -0.0197
     16 H          -3.3196    4.1941   18.0046 H       2  LIG2        0.0654
     17 C          -1.9789    1.6624   16.4265 C.ar    2  LIG2       -0.0308
     18 C           1.4985    1.1047   14.8784 C.ar    2  LIG2       -0.0539
     19 H           1.7482    0.2757   15.2699 H       2  LIG2        0.0622
     20 C          -3.1470    6.7215   13.8217 C.ar    1  LIG1       -0.0344
     21 C          -1.6938    7.0157   13.8229 C.3     1  LIG1        0.0501
     22 C          -0.6329    0.9677   16.2320 C.3     2  LIG2        0.0640
     23 C           0.3059    1.7001   15.2744 C.ar    2  LIG2       -0.0308
     24 C          -4.4348    2.9305   16.8572 C.ar    2  LIG2        0.1201
     25 C          -1.1671   -1.1890   14.8936 C.2     2  LIG2       -0.0042
     26 C          -3.7680    6.1788   14.9372 C.ar    1  LIG1       -0.0563
     27 H          -3.2464    5.9707   15.7042 H       1  LIG1        0.0621
     28 C          -0.4504    5.1663   10.7666 C.ar    1  LIG1       -0.0431
     29 H          -0.7126    4.4321   10.2230 H       1  LIG1        0.0632
     30 C           1.1154    6.9165   11.2830 C.ar    1  LIG1       -0.0431
     31 H           1.9189    7.3837   11.0848 H       1  LIG1        0.0632
     32 C           2.3328    1.6764   13.9362 C.ar    2  LIG2       -0.0197
     33 H           3.1350    1.2391   13.6770 H       2  LIG2        0.0654
     34 C          -3.9467    7.0254   12.7122 C.ar    1  LIG1       -0.0563
     35 H          -3.5446    7.4021   11.9383 H       1  LIG1        0.0621
     36 C          -1.2456    5.5702   11.8202 C.ar    1  LIG1       -0.0563
     37 H          -2.0617    5.1153   11.9902 H       1  LIG1        0.0621
     38 C          -5.1281    5.9356   14.9595 C.ar    1  LIG1       -0.0431
     39 H          -5.5401    5.5676   15.7327 H       1  LIG1        0.0632
     40 C           0.3175    7.3055   12.3464 C.ar    1  LIG1       -0.0563
     41 H           0.5834    8.0423   12.8839 H       1  LIG1        0.0621
     42 C          -6.8074    3.0762   16.6850 C.3     2  LIG2        0.0788
     43 H          -6.8050    3.1597   15.7092 H       2  LIG2        0.0660
     44 H          -7.5623    3.5794   17.0539 H       2  LIG2        0.0660
     45 H          -6.8926    2.1313   16.9315 H       2  LIG2        0.0660
     46 C           3.4461    2.7039   11.5119 C.3     2  LIG2        0.0788
     47 H           4.2261    2.3131   11.9584 H       2  LIG2        0.0660
     48 H           3.7424    3.2325   10.7411 H       2  LIG2        0.0660
     49 H           2.8513    1.9873   11.2072 H       2  LIG2        0.0660
     50 C          -5.8835    6.2368   13.8328 C.ar    1  LIG1        0.0410
     51 C          -2.0781    2.7899   17.2407 C.ar    2  LIG2       -0.0539
     52 H          -1.2965    3.1289   17.6592 H       2  LIG2        0.0622
     53 C           0.7199    5.8328   10.5122 C.ar    1  LIG1        0.0410
     54 C          -5.3024    6.7909   12.7183 C.ar    1  LIG1       -0.0431
     55 H          -5.8301    7.0087   11.9600 H       1  LIG1        0.0632
     56 C          -0.7431   -0.5489   15.9384 C.2     2  LIG2       -0.0178
@<TRIPOS>BOND
     1     2    53    1
     2    29    28    1
     3    53    28   ar
     4    53    30   ar
     5    48    46    1
     6    28    36   ar
     7    31    30    1
     8    49    46    1
     9    30    40   ar
    10    46    47    1
    11    46     3    1
    12    36    37    1
    13    36     9   ar
    14    35    34    1
    15    55    54    1
    16    40     9   ar
    17    40    41    1
    18     3    14    1
    19     9    21    1
    20    34    54   ar
    21    34    20   ar
    22    54    50   ar
    23    14    12   ar
    24    14    32   ar
    25    13    12    1
    26    33    32    1
    27    12     7   ar
    28    20    21    1
    29    20    26   ar
    30    50     1    1
    31    50    38   ar
    32    32    18   ar
    33     7     8    1
    34     7    23   ar
    35    18    19    1
    36    18    23   ar
    37    25    56    2
    38    26    38   ar
    39    26    27    1
    40    38    39    1
    41    11    10    1
    42    23    22    1
    43     6     5    1
    44    43    42    1
    45    10     5   ar
    46    10    17   ar
    47    56    22    1
    48     5    24   ar
    49    22    17    1
    50    17    51   ar
    51    42    45    1
    52    42    44    1
    53    42     4    1
    54    24     4    1
    55    24    15   ar
    56    51    15   ar
    57    51    52    1
    58    15    16    1
